@<TRIPOS>MOLECULE
default_name
   43    42     5     0     1 
SMALL
USER_CHARGES
@<TRIPOS>ATOM
  1 H1     26.205000   25.162000   24.938000 H     1 ACE     0.1123 ****
  2 CH3    26.222000   26.081000   24.353000 C     1 ACE    -0.3662 ****
  3 H2     25.449000   26.757000   24.713000 H     1 ACE     0.1123 ****
  4 H3     26.054000   25.849000   23.303000 H     1 ACE     0.1123 ****
  5 C      27.573000   26.738000   24.512000 C     1 ACE     0.5972 ****
  6 O      28.432000   26.216000   25.209000 O     1 ACE    -0.5679 ****
  7 N      27.759000   27.880000   23.855000 N     2 SER    -0.4157 ****
  8 H      26.990000   28.265000   23.326000 H     2 SER     0.2719 ****
  9 CA     28.963000   28.718000   23.948000 C     2 SER    -0.0249 ****
 10 HA     29.288000   28.752000   24.989000 H     2 SER     0.0843 ****
 11 CB     30.097000   28.101000   23.118000 C     2 SER     0.2117 ****
 12 HB2    30.231000   27.057000   23.407000 H     2 SER     0.0352 ****
 13 HB3    29.839000   28.145000   22.059000 H     2 SER     0.0352 ****
 14 OG     31.310000   28.795000   23.344000 O     2 SER    -0.6546 ****
 15 HG     32.002000   28.391000   22.810000 H     2 SER     0.4275 ****
 16 C      28.654000   30.157000   23.498000 C     2 SER     0.5973 ****
 17 O      27.562000   30.426000   22.997000 O     2 SER    -0.5679 ****
 18 N      29.603000   31.078000   23.678000 N     3 ALA    -0.4157 ****
 19 H      30.513000   30.738000   23.961000 H     3 ALA     0.2719 ****
 20 CA     29.497000   32.484000   23.281000 C     3 ALA     0.0337 ****
 21 HA     28.920000   32.551000   22.357000 H     3 ALA     0.0823 ****
 22 CB     28.722000   33.232000   24.385000 C     3 ALA    -0.1825 ****
 23 HB1    29.279000   33.205000   25.323000 H     3 ALA     0.0603 ****
 24 HB2    28.551000   34.267000   24.089000 H     3 ALA     0.0603 ****
 25 HB3    27.751000   32.760000   24.537000 H     3 ALA     0.0603 ****
 26 C      30.898000   33.069000   22.984000 C     3 ALA     0.5973 ****
 27 O      31.705000   32.422000   22.319000 O     3 ALA    -0.5679 ****
 28 N      31.213000   34.266000   23.487000 N     4 ALA    -0.4157 ****
 29 H      30.536000   34.738000   24.070000 H     4 ALA     0.2719 ****
 30 CA     32.505000   34.934000   23.331000 C     4 ALA     0.0337 ****
 31 HA     33.293000   34.180000   23.305000 H     4 ALA     0.0823 ****
 32 CB     32.513000   35.696000   21.998000 C     4 ALA    -0.1825 ****
 33 HB1    31.730000   36.456000   21.999000 H     4 ALA     0.0603 ****
 34 HB2    33.479000   36.179000   21.850000 H     4 ALA     0.0603 ****
 35 HB3    32.339000   35.002000   21.174000 H     4 ALA     0.0603 ****
 36 C      32.783000   35.872000   24.521000 C     4 ALA     0.5973 ****
 37 O      31.859000   36.259000   25.237000 O     4 ALA    -0.5679 ****
 38 N      34.054000   36.243000   24.723000 N     5 NME    -0.4157 ****
 39 H      34.755000   35.889000   24.091000 H     5 NME     0.2719 ****
 40 CH3    34.484000   37.131000   25.802000 C     5 NME    -0.1490 ****
 41 HH31   34.222000   36.692000   26.767000 H     5 NME     0.0976 ****
 42 HH32   35.562000   37.287000   25.758000 H     5 NME     0.0976 ****
 43 HH33   33.977000   38.094000   25.711000 H     5 NME     0.0976 ****
@<TRIPOS>BOND
    1     5     6 1
    2     5     7 1
    3     2     3 1
    4     2     4 1
    5     2     5 1
    6     1     2 1
    7    16    17 1
    8    16    18 1
    9    14    15 1
   10    11    12 1
   11    11    13 1
   12    11    14 1
   13     9    10 1
   14     9    11 1
   15     9    16 1
   16     7     8 1
   17     7     9 1
   18    26    27 1
   19    26    28 1
   20    22    23 1
   21    22    24 1
   22    22    25 1
   23    20    21 1
   24    20    22 1
   25    20    26 1
   26    18    19 1
   27    18    20 1
   28    36    37 1
   29    36    38 1
   30    32    33 1
   31    32    34 1
   32    32    35 1
   33    30    31 1
   34    30    32 1
   35    30    36 1
   36    28    29 1
   37    28    30 1
   38    40    41 1
   39    40    42 1
   40    40    43 1
   41    38    39 1
   42    38    40 1
@<TRIPOS>SUBSTRUCTURE
      1  ACE              1 ****               0 ****  **** 
      2  SER              7 ****               0 ****  **** 
      3  ALA             18 ****               0 ****  **** 
      4  ALA             28 ****               0 ****  **** 
      5  NME             38 ****               0 ****  **** 
