@<TRIPOS>MOLECULE
default_name
   43    42     5     0     1 
SMALL
USER_CHARGES
@<TRIPOS>ATOM
  1 H1     26.131000   25.164000   23.914000 H     1 ACE     0.1123 ****
  2 CH3    26.107000   26.244000   23.772000 C     1 ACE    -0.3662 ****
  3 H2     25.545000   26.706000   24.582000 H     1 ACE     0.1123 ****
  4 H3     25.641000   26.477000   22.817000 H     1 ACE     0.1123 ****
  5 C      27.522000   26.771000   23.783000 C     1 ACE     0.5972 ****
  6 O      28.464000   26.004000   23.929000 O     1 ACE    -0.5679 ****
  7 N      27.670000   28.083000   23.618000 N     2 SER    -0.4157 ****
  8 H      26.844000   28.657000   23.523000 H     2 SER     0.2719 ****
  9 CA     28.952000   28.798000   23.678000 C     2 SER    -0.0249 ****
 10 HA     29.545000   28.390000   24.497000 H     2 SER     0.0843 ****
 11 CB     29.731000   28.583000   22.374000 C     2 SER     0.2117 ****
 12 HB2    29.851000   27.513000   22.201000 H     2 SER     0.0352 ****
 13 HB3    29.174000   29.015000   21.541000 H     2 SER     0.0352 ****
 14 OG     31.012000   29.180000   22.447000 O     2 SER    -0.6546 ****
 15 HG     31.548000   28.839000   21.725000 H     2 SER     0.4275 ****
 16 C      28.723000   30.292000   23.951000 C     2 SER     0.5973 ****
 17 O      27.608000   30.787000   23.780000 O     2 SER    -0.5679 ****
 18 N      29.767000   31.011000   24.369000 N     3 ALA    -0.4157 ****
 19 H      30.663000   30.544000   24.418000 H     3 ALA     0.2719 ****
 20 CA     29.721000   32.415000   24.779000 C     3 ALA     0.0337 ****
 21 HA     29.134000   32.979000   24.053000 H     3 ALA     0.0823 ****
 22 CB     29.043000   32.525000   26.154000 C     3 ALA    -0.1825 ****
 23 HB1    29.592000   31.936000   26.891000 H     3 ALA     0.0603 ****
 24 HB2    29.026000   33.567000   26.472000 H     3 ALA     0.0603 ****
 25 HB3    28.016000   32.160000   26.096000 H     3 ALA     0.0603 ****
 26 C      31.146000   32.995000   24.834000 C     3 ALA     0.5973 ****
 27 O      31.997000   32.501000   25.571000 O     3 ALA    -0.5679 ****
 28 N      31.414000   34.025000   24.028000 N     4 ALA    -0.4157 ****
 29 H      30.673000   34.407000   23.458000 H     4 ALA     0.2719 ****
 30 CA     32.710000   34.699000   23.939000 C     4 ALA     0.0337 ****
 31 HA     33.183000   34.687000   24.922000 H     4 ALA     0.0823 ****
 32 CB     33.604000   33.928000   22.956000 C     4 ALA    -0.1825 ****
 33 HB1    33.149000   33.923000   21.964000 H     4 ALA     0.0603 ****
 34 HB2    34.585000   34.398000   22.897000 H     4 ALA     0.0603 ****
 35 HB3    33.728000   32.899000   23.299000 H     4 ALA     0.0603 ****
 36 C      32.537000   36.169000   23.512000 C     4 ALA     0.5973 ****
 37 O      31.506000   36.537000   22.950000 O     4 ALA    -0.5679 ****
 38 N      33.553000   37.003000   23.769000 N     5 NME    -0.4157 ****
 39 H      34.368000   36.626000   24.228000 H     5 NME     0.2719 ****
 40 CH3    33.551000   38.423000   23.424000 C     5 NME    -0.1490 ****
 41 HH31   32.719000   38.923000   23.923000 H     5 NME     0.0976 ****
 42 HH32   34.488000   38.890000   23.732000 H     5 NME     0.0976 ****
 43 HH33   33.429000   38.540000   22.345000 H     5 NME     0.0976 ****
@<TRIPOS>BOND
    1     5     6 1
    2     5     7 1
    3     2     3 1
    4     2     4 1
    5     2     5 1
    6     1     2 1
    7    16    17 1
    8    16    18 1
    9    14    15 1
   10    11    12 1
   11    11    13 1
   12    11    14 1
   13     9    10 1
   14     9    11 1
   15     9    16 1
   16     7     8 1
   17     7     9 1
   18    26    27 1
   19    26    28 1
   20    22    23 1
   21    22    24 1
   22    22    25 1
   23    20    21 1
   24    20    22 1
   25    20    26 1
   26    18    19 1
   27    18    20 1
   28    36    37 1
   29    36    38 1
   30    32    33 1
   31    32    34 1
   32    32    35 1
   33    30    31 1
   34    30    32 1
   35    30    36 1
   36    28    29 1
   37    28    30 1
   38    40    41 1
   39    40    42 1
   40    40    43 1
   41    38    39 1
   42    38    40 1
@<TRIPOS>SUBSTRUCTURE
      1  ACE              1 ****               0 ****  **** 
      2  SER              7 ****               0 ****  **** 
      3  ALA             18 ****               0 ****  **** 
      4  ALA             28 ****               0 ****  **** 
      5  NME             38 ****               0 ****  **** 
