@<TRIPOS>MOLECULE
default_name
   43    42     5     0     1 
SMALL
USER_CHARGES
@<TRIPOS>ATOM
  1 H1     28.945000   25.124000   23.242000 H     1 ACE     0.1123 ****
  2 CH3    28.744000   25.982000   23.882000 C     1 ACE    -0.3662 ****
  3 H2     29.474000   26.016000   24.688000 H     1 ACE     0.1123 ****
  4 H3     27.740000   25.904000   24.294000 H     1 ACE     0.1123 ****
  5 C      28.850000   27.244000   23.058000 C     1 ACE     0.5972 ****
  6 O      29.118000   27.183000   21.865000 O     1 ACE    -0.5679 ****
  7 N      28.633000   28.394000   23.691000 N     2 SER    -0.4157 ****
  8 H      28.454000   28.375000   24.686000 H     2 SER     0.2719 ****
  9 CA     28.783000   29.719000   23.076000 C     2 SER    -0.0249 ****
 10 HA     29.678000   29.710000   22.452000 H     2 SER     0.0843 ****
 11 CB     27.576000   30.019000   22.176000 C     2 SER     0.2117 ****
 12 HB2    27.341000   29.146000   21.565000 H     2 SER     0.0352 ****
 13 HB3    26.710000   30.259000   22.795000 H     2 SER     0.0352 ****
 14 OG     27.873000   31.107000   21.320000 O     2 SER    -0.6546 ****
 15 HG     28.089000   30.748000   20.451000 H     2 SER     0.4275 ****
 16 C      28.960000   30.810000   24.146000 C     2 SER     0.5973 ****
 17 O      28.938000   30.504000   25.336000 O     2 SER    -0.5679 ****
 18 N      29.185000   32.056000   23.712000 N     3 ALA    -0.4157 ****
 19 H      29.115000   32.167000   22.708000 H     3 ALA     0.2719 ****
 20 CA     29.207000   33.307000   24.495000 C     3 ALA     0.0337 ****
 21 HA     28.845000   34.058000   23.793000 H     3 ALA     0.0823 ****
 22 CB     28.175000   33.342000   25.636000 C     3 ALA    -0.1825 ****
 23 HB1    28.515000   32.732000   26.473000 H     3 ALA     0.0603 ****
 24 HB2    28.056000   34.368000   25.987000 H     3 ALA     0.0603 ****
 25 HB3    27.210000   32.976000   25.283000 H     3 ALA     0.0603 ****
 26 C      30.614000   33.830000   24.854000 C     3 ALA     0.5973 ****
 27 O      30.748000   34.868000   25.499000 O     3 ALA    -0.5679 ****
 28 N      31.671000   33.142000   24.411000 N     4 ALA    -0.4157 ****
 29 H      31.503000   32.296000   23.894000 H     4 ALA     0.2719 ****
 30 CA     33.058000   33.567000   24.590000 C     4 ALA     0.0337 ****
 31 HA     33.187000   33.928000   25.612000 H     4 ALA     0.0823 ****
 32 CB     33.963000   32.339000   24.409000 C     4 ALA    -0.1825 ****
 33 HB1    33.849000   31.932000   23.403000 H     4 ALA     0.0603 ****
 34 HB2    35.005000   32.630000   24.554000 H     4 ALA     0.0603 ****
 35 HB3    33.704000   31.574000   25.141000 H     4 ALA     0.0603 ****
 36 C      33.415000   34.721000   23.629000 C     4 ALA     0.5973 ****
 37 O      33.798000   34.490000   22.484000 O     4 ALA    -0.5679 ****
 38 N      33.274000   35.967000   24.098000 N     5 NME    -0.4157 ****
 39 H      32.873000   36.075000   25.019000 H     5 NME     0.2719 ****
 40 CH3    33.567000   37.174000   23.328000 C     5 NME    -0.1490 ****
 41 HH31   32.945000   37.197000   22.431000 H     5 NME     0.0976 ****
 42 HH32   33.366000   38.062000   23.928000 H     5 NME     0.0976 ****
 43 HH33   34.616000   37.172000   23.025000 H     5 NME     0.0976 ****
@<TRIPOS>BOND
    1     5     6 1
    2     5     7 1
    3     2     3 1
    4     2     4 1
    5     2     5 1
    6     1     2 1
    7    16    17 1
    8    16    18 1
    9    14    15 1
   10    11    12 1
   11    11    13 1
   12    11    14 1
   13     9    10 1
   14     9    11 1
   15     9    16 1
   16     7     8 1
   17     7     9 1
   18    26    27 1
   19    26    28 1
   20    22    23 1
   21    22    24 1
   22    22    25 1
   23    20    21 1
   24    20    22 1
   25    20    26 1
   26    18    19 1
   27    18    20 1
   28    36    37 1
   29    36    38 1
   30    32    33 1
   31    32    34 1
   32    32    35 1
   33    30    31 1
   34    30    32 1
   35    30    36 1
   36    28    29 1
   37    28    30 1
   38    40    41 1
   39    40    42 1
   40    40    43 1
   41    38    39 1
   42    38    40 1
@<TRIPOS>SUBSTRUCTURE
      1  ACE              1 ****               0 ****  **** 
      2  SER              7 ****               0 ****  **** 
      3  ALA             18 ****               0 ****  **** 
      4  ALA             28 ****               0 ****  **** 
      5  NME             38 ****               0 ****  **** 
