@<TRIPOS>MOLECULE
default_name
   43    42     5     0     1 
SMALL
USER_CHARGES
@<TRIPOS>ATOM
  1 H1     27.546000   31.612000   21.318000 H     1 ACE     0.1123 ****
  2 CH3    28.175000   30.724000   21.289000 C     1 ACE    -0.3662 ****
  3 H2     29.187000   31.003000   21.000000 H     1 ACE     0.1123 ****
  4 H3     27.766000   30.008000   20.580000 H     1 ACE     0.1123 ****
  5 C      28.213000   30.106000   22.666000 C     1 ACE     0.5972 ****
  6 O      27.625000   30.642000   23.597000 O     1 ACE    -0.5679 ****
  7 N      28.911000   28.978000   22.792000 N     2 SER    -0.4157 ****
  8 H      29.395000   28.640000   21.976000 H     2 SER     0.2719 ****
  9 CA     29.221000   28.336000   24.079000 C     2 SER    -0.0249 ****
 10 HA     28.337000   28.360000   24.717000 H     2 SER     0.0843 ****
 11 CB     29.589000   26.866000   23.842000 C     2 SER     0.2117 ****
 12 HB2    28.714000   26.330000   23.473000 H     2 SER     0.0352 ****
 13 HB3    30.385000   26.800000   23.098000 H     2 SER     0.0352 ****
 14 OG     30.031000   26.268000   25.042000 O     2 SER    -0.6546 ****
 15 HG     30.899000   26.646000   25.241000 H     2 SER     0.4275 ****
 16 C      30.351000   29.101000   24.781000 C     2 SER     0.5973 ****
 17 O      31.518000   28.740000   24.638000 O     2 SER    -0.5679 ****
 18 N      29.986000   30.159000   25.515000 N     3 ALA    -0.4157 ****
 19 H      28.993000   30.291000   25.625000 H     3 ALA     0.2719 ****
 20 CA     30.803000   31.358000   25.732000 C     3 ALA     0.0337 ****
 21 HA     30.195000   32.008000   26.361000 H     3 ALA     0.0823 ****
 22 CB     32.068000   31.062000   26.553000 C     3 ALA    -0.1825 ****
 23 HB1    32.786000   30.502000   25.952000 H     3 ALA     0.0603 ****
 24 HB2    32.532000   32.000000   26.861000 H     3 ALA     0.0603 ****
 25 HB3    31.810000   30.483000   27.440000 H     3 ALA     0.0603 ****
 26 C      31.061000   32.154000   24.431000 C     3 ALA     0.5973 ****
 27 O      31.350000   31.597000   23.372000 O     3 ALA    -0.5679 ****
 28 N      30.903000   33.478000   24.503000 N     4 ALA    -0.4157 ****
 29 H      30.691000   33.899000   25.396000 H     4 ALA     0.2719 ****
 30 CA     31.068000   34.402000   23.381000 C     4 ALA     0.0337 ****
 31 HA     31.853000   34.025000   22.723000 H     4 ALA     0.0823 ****
 32 CB     29.751000   34.459000   22.591000 C     4 ALA    -0.1825 ****
 33 HB1    28.950000   34.833000   23.230000 H     4 ALA     0.0603 ****
 34 HB2    29.860000   35.118000   21.730000 H     4 ALA     0.0603 ****
 35 HB3    29.489000   33.461000   22.237000 H     4 ALA     0.0603 ****
 36 C      31.491000   35.797000   23.877000 C     4 ALA     0.5973 ****
 37 O      31.303000   36.124000   25.049000 O     4 ALA    -0.5679 ****
 38 N      32.051000   36.620000   22.982000 N     5 NME    -0.4157 ****
 39 H      32.167000   36.283000   22.039000 H     5 NME     0.2719 ****
 40 CH3    32.501000   37.976000   23.289000 C     5 NME    -0.1490 ****
 41 HH31   33.264000   37.944000   24.070000 H     5 NME     0.0976 ****
 42 HH32   32.919000   38.449000   22.398000 H     5 NME     0.0976 ****
 43 HH33   31.660000   38.571000   23.651000 H     5 NME     0.0976 ****
@<TRIPOS>BOND
    1     5     6 1
    2     5     7 1
    3     2     3 1
    4     2     4 1
    5     2     5 1
    6     1     2 1
    7    16    17 1
    8    16    18 1
    9    14    15 1
   10    11    12 1
   11    11    13 1
   12    11    14 1
   13     9    10 1
   14     9    11 1
   15     9    16 1
   16     7     8 1
   17     7     9 1
   18    26    27 1
   19    26    28 1
   20    22    23 1
   21    22    24 1
   22    22    25 1
   23    20    21 1
   24    20    22 1
   25    20    26 1
   26    18    19 1
   27    18    20 1
   28    36    37 1
   29    36    38 1
   30    32    33 1
   31    32    34 1
   32    32    35 1
   33    30    31 1
   34    30    32 1
   35    30    36 1
   36    28    29 1
   37    28    30 1
   38    40    41 1
   39    40    42 1
   40    40    43 1
   41    38    39 1
   42    38    40 1
@<TRIPOS>SUBSTRUCTURE
      1  ACE              1 ****               0 ****  **** 
      2  SER              7 ****               0 ****  **** 
      3  ALA             18 ****               0 ****  **** 
      4  ALA             28 ****               0 ****  **** 
      5  NME             38 ****               0 ****  **** 
