@<TRIPOS>MOLECULE
default_name
   43    42     5     0     1 
SMALL
USER_CHARGES
@<TRIPOS>ATOM
  1 H1     27.286000   28.798000   20.710000 H     1 ACE     0.1123 ****
  2 CH3    27.290000   29.659000   21.376000 C     1 ACE    -0.3662 ****
  3 H2     26.313000   30.141000   21.356000 H     1 ACE     0.1123 ****
  4 H3     28.053000   30.370000   21.062000 H     1 ACE     0.1123 ****
  5 C      27.584000   29.205000   22.785000 C     1 ACE     0.5972 ****
  6 O      26.779000   29.420000   23.681000 O     1 ACE    -0.5679 ****
  7 N      28.749000   28.589000   22.979000 N     2 SER    -0.4157 ****
  8 H      29.360000   28.497000   22.184000 H     2 SER     0.2719 ****
  9 CA     29.269000   28.157000   24.288000 C     2 SER    -0.0249 ****
 10 HA     28.431000   28.000000   24.968000 H     2 SER     0.0843 ****
 11 CB     29.983000   26.807000   24.133000 C     2 SER     0.2117 ****
 12 HB2    29.272000   26.062000   23.772000 H     2 SER     0.0352 ****
 13 HB3    30.794000   26.901000   23.409000 H     2 SER     0.0352 ****
 14 OG     30.513000   26.380000   25.368000 O     2 SER    -0.6546 ****
 15 HG     31.196000   27.023000   25.611000 H     2 SER     0.4275 ****
 16 C      30.168000   29.241000   24.911000 C     2 SER     0.5973 ****
 17 O      31.363000   29.018000   25.105000 O     2 SER    -0.5679 ****
 18 N      29.587000   30.424000   25.150000 N     3 ALA    -0.4157 ****
 19 H      28.599000   30.475000   24.965000 H     3 ALA     0.2719 ****
 20 CA     30.244000   31.705000   25.447000 C     3 ALA     0.0337 ****
 21 HA     29.469000   32.305000   25.926000 H     3 ALA     0.0823 ****
 22 CB     31.359000   31.601000   26.502000 C     3 ALA    -0.1825 ****
 23 HB1    32.257000   31.166000   26.062000 H     3 ALA     0.0603 ****
 24 HB2    31.607000   32.594000   26.878000 H     3 ALA     0.0603 ****
 25 HB3    31.027000   30.982000   27.336000 H     3 ALA     0.0603 ****
 26 C      30.604000   32.495000   24.170000 C     3 ALA     0.5973 ****
 27 O      30.605000   31.955000   23.064000 O     3 ALA    -0.5679 ****
 28 N      30.878000   33.792000   24.324000 N     4 ALA    -0.4157 ****
 29 H      30.900000   34.180000   25.256000 H     4 ALA     0.2719 ****
 30 CA     31.260000   34.702000   23.243000 C     4 ALA     0.0337 ****
 31 HA     31.844000   34.149000   22.505000 H     4 ALA     0.0823 ****
 32 CB     29.988000   35.233000   22.566000 C     4 ALA    -0.1825 ****
 33 HB1    29.387000   35.788000   23.287000 H     4 ALA     0.0603 ****
 34 HB2    30.254000   35.894000   21.740000 H     4 ALA     0.0603 ****
 35 HB3    29.402000   34.401000   22.174000 H     4 ALA     0.0603 ****
 36 C      32.137000   35.849000   23.781000 C     4 ALA     0.5973 ****
 37 O      32.125000   36.129000   24.980000 O     4 ALA    -0.5679 ****
 38 N      32.884000   36.517000   22.893000 N     5 NME    -0.4157 ****
 39 H      32.836000   36.232000   21.927000 H     5 NME     0.2719 ****
 40 CH3    33.763000   37.632000   23.240000 C     5 NME    -0.1490 ****
 41 HH31   34.514000   37.299000   23.959000 H     5 NME     0.0976 ****
 42 HH32   34.263000   38.013000   22.348000 H     5 NME     0.0976 ****
 43 HH33   33.179000   38.434000   23.696000 H     5 NME     0.0976 ****
@<TRIPOS>BOND
    1     5     6 1
    2     5     7 1
    3     2     3 1
    4     2     4 1
    5     2     5 1
    6     1     2 1
    7    16    17 1
    8    16    18 1
    9    14    15 1
   10    11    12 1
   11    11    13 1
   12    11    14 1
   13     9    10 1
   14     9    11 1
   15     9    16 1
   16     7     8 1
   17     7     9 1
   18    26    27 1
   19    26    28 1
   20    22    23 1
   21    22    24 1
   22    22    25 1
   23    20    21 1
   24    20    22 1
   25    20    26 1
   26    18    19 1
   27    18    20 1
   28    36    37 1
   29    36    38 1
   30    32    33 1
   31    32    34 1
   32    32    35 1
   33    30    31 1
   34    30    32 1
   35    30    36 1
   36    28    29 1
   37    28    30 1
   38    40    41 1
   39    40    42 1
   40    40    43 1
   41    38    39 1
   42    38    40 1
@<TRIPOS>SUBSTRUCTURE
      1  ACE              1 ****               0 ****  **** 
      2  SER              7 ****               0 ****  **** 
      3  ALA             18 ****               0 ****  **** 
      4  ALA             28 ****               0 ****  **** 
      5  NME             38 ****               0 ****  **** 
