@<TRIPOS>MOLECULE
default_name
   43    42     5     0     1 
SMALL
USER_CHARGES
@<TRIPOS>ATOM
  1 H1     25.891000   30.125000   20.633000 H     1 ACE     0.1123 ****
  2 CH3    26.957000   30.230000   20.829000 C     1 ACE    -0.3662 ****
  3 H2     27.278000   31.235000   20.565000 H     1 ACE     0.1123 ****
  4 H3     27.509000   29.497000   20.244000 H     1 ACE     0.1123 ****
  5 C      27.209000   29.992000   22.299000 C     1 ACE     0.5972 ****
  6 O      26.279000   29.733000   23.050000 O     1 ACE    -0.5679 ****
  7 N      28.472000   30.073000   22.709000 N     2 SER    -0.4157 ****
  8 H      29.186000   30.306000   22.034000 H     2 SER     0.2719 ****
  9 CA     28.907000   29.942000   24.108000 C     2 SER    -0.0249 ****
 10 HA     28.182000   30.446000   24.747000 H     2 SER     0.0843 ****
 11 CB     28.933000   28.460000   24.505000 C     2 SER     0.2117 ****
 12 HB2    27.958000   28.017000   24.294000 H     2 SER     0.0352 ****
 13 HB3    29.692000   27.936000   23.922000 H     2 SER     0.0352 ****
 14 OG     29.208000   28.315000   25.886000 O     2 SER    -0.6546 ****
 15 HG     28.979000   27.417000   26.149000 H     2 SER     0.4275 ****
 16 C      30.274000   30.616000   24.321000 C     2 SER     0.5973 ****
 17 O      30.925000   30.981000   23.345000 O     2 SER    -0.5679 ****
 18 N      30.684000   30.762000   25.586000 N     3 ALA    -0.4157 ****
 19 H      30.089000   30.293000   26.257000 H     3 ALA     0.2719 ****
 20 CA     31.827000   31.487000   26.172000 C     3 ALA     0.0337 ****
 21 HA     31.717000   31.397000   27.254000 H     3 ALA     0.0823 ****
 22 CB     33.126000   30.747000   25.818000 C     3 ALA    -0.1825 ****
 23 HB1    33.305000   30.789000   24.743000 H     3 ALA     0.0603 ****
 24 HB2    33.965000   31.212000   26.337000 H     3 ALA     0.0603 ****
 25 HB3    33.054000   29.704000   26.128000 H     3 ALA     0.0603 ****
 26 C      31.926000   33.012000   25.912000 C     3 ALA     0.5973 ****
 27 O      31.821000   33.769000   26.871000 O     3 ALA    -0.5679 ****
 28 N      32.043000   33.484000   24.665000 N     4 ALA    -0.4157 ****
 29 H      32.330000   32.846000   23.946000 H     4 ALA     0.2719 ****
 30 CA     32.054000   34.910000   24.309000 C     4 ALA     0.0337 ****
 31 HA     31.623000   35.483000   25.132000 H     4 ALA     0.0823 ****
 32 CB     33.516000   35.352000   24.150000 C     4 ALA    -0.1825 ****
 33 HB1    33.979000   34.822000   23.317000 H     4 ALA     0.0603 ****
 34 HB2    33.556000   36.424000   23.956000 H     4 ALA     0.0603 ****
 35 HB3    34.068000   35.143000   25.068000 H     4 ALA     0.0603 ****
 36 C      31.195000   35.248000   23.066000 C     4 ALA     0.5973 ****
 37 O      31.240000   36.371000   22.570000 O     4 ALA    -0.5679 ****
 38 N      30.418000   34.284000   22.553000 N     5 NME    -0.4157 ****
 39 H      30.426000   33.388000   23.013000 H     5 NME     0.2719 ****
 40 CH3    29.555000   34.454000   21.386000 C     5 NME    -0.1490 ****
 41 HH31   30.158000   34.742000   20.522000 H     5 NME     0.0976 ****
 42 HH32   29.030000   33.524000   21.166000 H     5 NME     0.0976 ****
 43 HH33   28.827000   35.244000   21.579000 H     5 NME     0.0976 ****
@<TRIPOS>BOND
    1     5     6 1
    2     5     7 1
    3     2     3 1
    4     2     4 1
    5     2     5 1
    6     1     2 1
    7    16    17 1
    8    16    18 1
    9    14    15 1
   10    11    12 1
   11    11    13 1
   12    11    14 1
   13     9    10 1
   14     9    11 1
   15     9    16 1
   16     7     8 1
   17     7     9 1
   18    26    27 1
   19    26    28 1
   20    22    23 1
   21    22    24 1
   22    22    25 1
   23    20    21 1
   24    20    22 1
   25    20    26 1
   26    18    19 1
   27    18    20 1
   28    36    37 1
   29    36    38 1
   30    32    33 1
   31    32    34 1
   32    32    35 1
   33    30    31 1
   34    30    32 1
   35    30    36 1
   36    28    29 1
   37    28    30 1
   38    40    41 1
   39    40    42 1
   40    40    43 1
   41    38    39 1
   42    38    40 1
@<TRIPOS>SUBSTRUCTURE
      1  ACE              1 ****               0 ****  **** 
      2  SER              7 ****               0 ****  **** 
      3  ALA             18 ****               0 ****  **** 
      4  ALA             28 ****               0 ****  **** 
      5  NME             38 ****               0 ****  **** 
