@<TRIPOS>MOLECULE
default_name
   43    42     5     0     1 
SMALL
USER_CHARGES
@<TRIPOS>ATOM
  1 H1     25.223000   28.000000   22.067000 H     1 ACE     0.1123 ****
  2 CH3    26.272000   28.044000   21.779000 C     1 ACE    -0.3662 ****
  3 H2     26.411000   28.821000   21.029000 H     1 ACE     0.1123 ****
  4 H3     26.582000   27.080000   21.381000 H     1 ACE     0.1123 ****
  5 C      27.100000   28.376000   22.998000 C     1 ACE     0.5972 ****
  6 O      26.559000   28.549000   24.083000 O     1 ACE    -0.5679 ****
  7 N      28.417000   28.461000   22.823000 N     2 SER    -0.4157 ****
  8 H      28.783000   28.353000   21.892000 H     2 SER     0.2719 ****
  9 CA     29.329000   28.893000   23.888000 C     2 SER    -0.0249 ****
 10 HA     29.060000   28.377000   24.810000 H     2 SER     0.0843 ****
 11 CB     30.777000   28.522000   23.547000 C     2 SER     0.2117 ****
 12 HB2    30.842000   27.443000   23.405000 H     2 SER     0.0352 ****
 13 HB3    31.079000   29.019000   22.624000 H     2 SER     0.0352 ****
 14 OG     31.655000   28.899000   24.592000 O     2 SER    -0.6546 ****
 15 HG     31.877000   29.847000   24.512000 H     2 SER     0.4275 ****
 16 C      29.246000   30.401000   24.127000 C     2 SER     0.5973 ****
 17 O      29.273000   31.179000   23.174000 O     2 SER    -0.5679 ****
 18 N      29.235000   30.814000   25.399000 N     3 ALA    -0.4157 ****
 19 H      29.075000   30.095000   26.085000 H     3 ALA     0.2719 ****
 20 CA     29.985000   31.977000   25.887000 C     3 ALA     0.0337 ****
 21 HA     29.280000   32.803000   25.987000 H     3 ALA     0.0823 ****
 22 CB     30.529000   31.653000   27.284000 C     3 ALA    -0.1825 ****
 23 HB1    31.222000   30.812000   27.229000 H     3 ALA     0.0603 ****
 24 HB2    31.056000   32.520000   27.683000 H     3 ALA     0.0603 ****
 25 HB3    29.707000   31.400000   27.956000 H     3 ALA     0.0603 ****
 26 C      31.107000   32.434000   24.927000 C     3 ALA     0.5973 ****
 27 O      32.028000   31.660000   24.648000 O     3 ALA    -0.5679 ****
 28 N      31.029000   33.668000   24.424000 N     4 ALA    -0.4157 ****
 29 H      30.257000   34.259000   24.693000 H     4 ALA     0.2719 ****
 30 CA     31.977000   34.240000   23.468000 C     4 ALA     0.0337 ****
 31 HA     32.971000   33.838000   23.669000 H     4 ALA     0.0823 ****
 32 CB     31.556000   33.821000   22.052000 C     4 ALA    -0.1825 ****
 33 HB1    30.562000   34.210000   21.829000 H     4 ALA     0.0603 ****
 34 HB2    32.265000   34.207000   21.319000 H     4 ALA     0.0603 ****
 35 HB3    31.534000   32.732000   21.980000 H     4 ALA     0.0603 ****
 36 C      32.048000   35.773000   23.610000 C     4 ALA     0.5973 ****
 37 O      31.162000   36.388000   24.202000 O     4 ALA    -0.5679 ****
 38 N      33.102000   36.387000   23.057000 N     5 NME    -0.4157 ****
 39 H      33.784000   35.818000   22.581000 H     5 NME     0.2719 ****
 40 CH3    33.318000   37.833000   23.095000 C     5 NME    -0.1490 ****
 41 HH31   33.379000   38.169000   24.132000 H     5 NME     0.0976 ****
 42 HH32   34.242000   38.093000   22.577000 H     5 NME     0.0976 ****
 43 HH33   32.480000   38.343000   22.615000 H     5 NME     0.0976 ****
@<TRIPOS>BOND
    1     5     6 1
    2     5     7 1
    3     2     3 1
    4     2     4 1
    5     2     5 1
    6     1     2 1
    7    16    17 1
    8    16    18 1
    9    14    15 1
   10    11    12 1
   11    11    13 1
   12    11    14 1
   13     9    10 1
   14     9    11 1
   15     9    16 1
   16     7     8 1
   17     7     9 1
   18    26    27 1
   19    26    28 1
   20    22    23 1
   21    22    24 1
   22    22    25 1
   23    20    21 1
   24    20    22 1
   25    20    26 1
   26    18    19 1
   27    18    20 1
   28    36    37 1
   29    36    38 1
   30    32    33 1
   31    32    34 1
   32    32    35 1
   33    30    31 1
   34    30    32 1
   35    30    36 1
   36    28    29 1
   37    28    30 1
   38    40    41 1
   39    40    42 1
   40    40    43 1
   41    38    39 1
   42    38    40 1
@<TRIPOS>SUBSTRUCTURE
      1  ACE              1 ****               0 ****  **** 
      2  SER              7 ****               0 ****  **** 
      3  ALA             18 ****               0 ****  **** 
      4  ALA             28 ****               0 ****  **** 
      5  NME             38 ****               0 ****  **** 
