@<TRIPOS>MOLECULE
default_name
   43    42     5     0     1 
SMALL
USER_CHARGES
@<TRIPOS>ATOM
  1 H1     26.284000   25.184000   23.579000 H     1 ACE     0.1123 ****
  2 CH3    26.227000   26.269000   23.507000 C     1 ACE    -0.3662 ****
  3 H2     25.630000   26.658000   24.330000 H     1 ACE     0.1123 ****
  4 H3     25.778000   26.551000   22.557000 H     1 ACE     0.1123 ****
  5 C      27.623000   26.839000   23.591000 C     1 ACE     0.5972 ****
  6 O      28.586000   26.094000   23.711000 O     1 ACE    -0.5679 ****
  7 N      27.732000   28.163000   23.516000 N     2 SER    -0.4157 ****
  8 H      26.889000   28.715000   23.438000 H     2 SER     0.2719 ****
  9 CA     28.987000   28.913000   23.659000 C     2 SER    -0.0249 ****
 10 HA     29.571000   28.470000   24.467000 H     2 SER     0.0843 ****
 11 CB     29.808000   28.808000   22.367000 C     2 SER     0.2117 ****
 12 HB2    29.965000   27.755000   22.128000 H     2 SER     0.0352 ****
 13 HB3    29.261000   29.278000   21.548000 H     2 SER     0.0352 ****
 14 OG     31.069000   29.434000   22.517000 O     2 SER    -0.6546 ****
 15 HG     31.632000   29.159000   21.786000 H     2 SER     0.4275 ****
 16 C      28.702000   30.378000   24.022000 C     2 SER     0.5973 ****
 17 O      27.574000   30.845000   23.864000 O     2 SER    -0.5679 ****
 18 N      29.716000   31.103000   24.498000 N     3 ALA    -0.4157 ****
 19 H      30.624000   30.661000   24.528000 H     3 ALA     0.2719 ****
 20 CA     29.618000   32.476000   24.994000 C     3 ALA     0.0337 ****
 21 HA     29.019000   33.068000   24.300000 H     3 ALA     0.0823 ****
 22 CB     28.916000   32.470000   26.363000 C     3 ALA    -0.1825 ****
 23 HB1    29.467000   31.842000   27.065000 H     3 ALA     0.0603 ****
 24 HB2    28.870000   33.486000   26.756000 H     3 ALA     0.0603 ****
 25 HB3    27.900000   32.088000   26.262000 H     3 ALA     0.0603 ****
 26 C      31.023000   33.097000   25.099000 C     3 ALA     0.5973 ****
 27 O      31.797000   32.768000   25.995000 O     3 ALA    -0.5679 ****
 28 N      31.369000   33.968000   24.148000 N     4 ALA    -0.4157 ****
 29 H      30.691000   34.215000   23.441000 H     4 ALA     0.2719 ****
 30 CA     32.663000   34.647000   24.068000 C     4 ALA     0.0337 ****
 31 HA     33.030000   34.830000   25.079000 H     4 ALA     0.0823 ****
 32 CB     33.659000   33.730000   23.343000 C     4 ALA    -0.1825 ****
 33 HB1    33.311000   33.529000   22.329000 H     4 ALA     0.0603 ****
 34 HB2    34.639000   34.206000   23.297000 H     4 ALA     0.0603 ****
 35 HB3    33.754000   32.786000   23.883000 H     4 ALA     0.0603 ****
 36 C      32.528000   36.007000   23.358000 C     4 ALA     0.5973 ****
 37 O      31.563000   36.236000   22.629000 O     4 ALA    -0.5679 ****
 38 N      33.504000   36.902000   23.562000 N     5 NME    -0.4157 ****
 39 H      34.265000   36.639000   24.168000 H     5 NME     0.2719 ****
 40 CH3    33.530000   38.233000   22.959000 C     5 NME    -0.1490 ****
 41 HH31   32.644000   38.793000   23.264000 H     5 NME     0.0976 ****
 42 HH32   34.424000   38.774000   23.273000 H     5 NME     0.0976 ****
 43 HH33   33.527000   38.145000   21.870000 H     5 NME     0.0976 ****
@<TRIPOS>BOND
    1     5     6 1
    2     5     7 1
    3     2     3 1
    4     2     4 1
    5     2     5 1
    6     1     2 1
    7    16    17 1
    8    16    18 1
    9    14    15 1
   10    11    12 1
   11    11    13 1
   12    11    14 1
   13     9    10 1
   14     9    11 1
   15     9    16 1
   16     7     8 1
   17     7     9 1
   18    26    27 1
   19    26    28 1
   20    22    23 1
   21    22    24 1
   22    22    25 1
   23    20    21 1
   24    20    22 1
   25    20    26 1
   26    18    19 1
   27    18    20 1
   28    36    37 1
   29    36    38 1
   30    32    33 1
   31    32    34 1
   32    32    35 1
   33    30    31 1
   34    30    32 1
   35    30    36 1
   36    28    29 1
   37    28    30 1
   38    40    41 1
   39    40    42 1
   40    40    43 1
   41    38    39 1
   42    38    40 1
@<TRIPOS>SUBSTRUCTURE
      1  ACE              1 ****               0 ****  **** 
      2  SER              7 ****               0 ****  **** 
      3  ALA             18 ****               0 ****  **** 
      4  ALA             28 ****               0 ****  **** 
      5  NME             38 ****               0 ****  **** 
