@<TRIPOS>MOLECULE
default_name
   43    42     5     0     1 
SMALL
USER_CHARGES
@<TRIPOS>ATOM
  1 H1     26.458000   25.174000   22.908000 H     1 ACE     0.1123 ****
  2 CH3    26.559000   26.234000   22.680000 C     1 ACE    -0.3662 ****
  3 H2     25.638000   26.753000   22.940000 H     1 ACE     0.1123 ****
  4 H3     26.771000   26.361000   21.620000 H     1 ACE     0.1123 ****
  5 C      27.700000   26.802000   23.490000 C     1 ACE     0.5972 ****
  6 O      28.335000   26.081000   24.247000 O     1 ACE    -0.5679 ****
  7 N      27.958000   28.097000   23.329000 N     2 SER    -0.4157 ****
  8 H      27.379000   28.633000   22.699000 H     2 SER     0.2719 ****
  9 CA     29.012000   28.834000   24.037000 C     2 SER    -0.0249 ****
 10 HA     29.100000   28.448000   25.053000 H     2 SER     0.0843 ****
 11 CB     30.357000   28.628000   23.326000 C     2 SER     0.2117 ****
 12 HB2    30.635000   27.575000   23.390000 H     2 SER     0.0352 ****
 13 HB3    30.259000   28.901000   22.273000 H     2 SER     0.0352 ****
 14 OG     31.381000   29.411000   23.911000 O     2 SER    -0.6546 ****
 15 HG     31.316000   30.318000   23.551000 H     2 SER     0.4275 ****
 16 C      28.677000   30.326000   24.107000 C     2 SER     0.5973 ****
 17 O      28.011000   30.856000   23.219000 O     2 SER    -0.5679 ****
 18 N      29.153000   31.015000   25.150000 N     3 ALA    -0.4157 ****
 19 H      29.682000   30.497000   25.834000 H     3 ALA     0.2719 ****
 20 CA     29.386000   32.460000   25.092000 C     3 ALA     0.0337 ****
 21 HA     28.450000   32.954000   24.824000 H     3 ALA     0.0823 ****
 22 CB     29.780000   32.907000   26.510000 C     3 ALA    -0.1825 ****
 23 HB1    30.742000   32.472000   26.786000 H     3 ALA     0.0603 ****
 24 HB2    29.851000   33.994000   26.561000 H     3 ALA     0.0603 ****
 25 HB3    29.021000   32.582000   27.224000 H     3 ALA     0.0603 ****
 26 C      30.442000   32.851000   24.021000 C     3 ALA     0.5973 ****
 27 O      30.909000   32.016000   23.241000 O     3 ALA    -0.5679 ****
 28 N      30.928000   34.094000   24.071000 N     4 ALA    -0.4157 ****
 29 H      30.578000   34.724000   24.778000 H     4 ALA     0.2719 ****
 30 CA     31.993000   34.619000   23.217000 C     4 ALA     0.0337 ****
 31 HA     32.704000   33.820000   23.000000 H     4 ALA     0.0823 ****
 32 CB     31.378000   35.099000   21.894000 C     4 ALA    -0.1825 ****
 33 HB1    30.663000   35.901000   22.086000 H     4 ALA     0.0603 ****
 34 HB2    32.160000   35.469000   21.230000 H     4 ALA     0.0603 ****
 35 HB3    30.864000   34.271000   21.403000 H     4 ALA     0.0603 ****
 36 C      32.756000   35.751000   23.933000 C     4 ALA     0.5973 ****
 37 O      32.254000   36.322000   24.900000 O     4 ALA    -0.5679 ****
 38 N      33.962000   36.077000   23.450000 N     5 NME    -0.4157 ****
 39 H      34.304000   35.567000   22.650000 H     5 NME     0.2719 ****
 40 CH3    34.809000   37.128000   24.010000 C     5 NME    -0.1490 ****
 41 HH31   35.040000   36.899000   25.053000 H     5 NME     0.0976 ****
 42 HH32   35.739000   37.208000   23.445000 H     5 NME     0.0976 ****
 43 HH33   34.282000   38.084000   23.974000 H     5 NME     0.0976 ****
@<TRIPOS>BOND
    1     5     6 1
    2     5     7 1
    3     2     3 1
    4     2     4 1
    5     2     5 1
    6     1     2 1
    7    16    17 1
    8    16    18 1
    9    14    15 1
   10    11    12 1
   11    11    13 1
   12    11    14 1
   13     9    10 1
   14     9    11 1
   15     9    16 1
   16     7     8 1
   17     7     9 1
   18    26    27 1
   19    26    28 1
   20    22    23 1
   21    22    24 1
   22    22    25 1
   23    20    21 1
   24    20    22 1
   25    20    26 1
   26    18    19 1
   27    18    20 1
   28    36    37 1
   29    36    38 1
   30    32    33 1
   31    32    34 1
   32    32    35 1
   33    30    31 1
   34    30    32 1
   35    30    36 1
   36    28    29 1
   37    28    30 1
   38    40    41 1
   39    40    42 1
   40    40    43 1
   41    38    39 1
   42    38    40 1
@<TRIPOS>SUBSTRUCTURE
      1  ACE              1 ****               0 ****  **** 
      2  SER              7 ****               0 ****  **** 
      3  ALA             18 ****               0 ****  **** 
      4  ALA             28 ****               0 ****  **** 
      5  NME             38 ****               0 ****  **** 
