@<TRIPOS>MOLECULE
default_name
   43    42     5     0     1 
SMALL
USER_CHARGES
@<TRIPOS>ATOM
  1 H1     26.738000   30.492000   21.227000 H     1 ACE     0.1123 ****
  2 CH3    27.661000   29.916000   21.275000 C     1 ACE    -0.3662 ****
  3 H2     28.504000   30.556000   21.016000 H     1 ACE     0.1123 ****
  4 H3     27.604000   29.075000   20.587000 H     1 ACE     0.1123 ****
  5 C      27.847000   29.405000   22.683000 C     1 ACE     0.5972 ****
  6 O      27.033000   29.687000   23.553000 O     1 ACE    -0.5679 ****
  7 N      28.926000   28.656000   22.905000 N     2 SER    -0.4157 ****
  8 H      29.559000   28.520000   22.134000 H     2 SER     0.2719 ****
  9 CA     29.373000   28.215000   24.235000 C     2 SER    -0.0249 ****
 10 HA     28.504000   28.019000   24.864000 H     2 SER     0.0843 ****
 11 CB     30.156000   26.902000   24.100000 C     2 SER     0.2117 ****
 12 HB2    29.486000   26.118000   23.745000 H     2 SER     0.0352 ****
 13 HB3    30.966000   27.029000   23.381000 H     2 SER     0.0352 ****
 14 OG     30.701000   26.521000   25.345000 O     2 SER    -0.6546 ****
 15 HG     31.392000   27.165000   25.555000 H     2 SER     0.4275 ****
 16 C      30.207000   29.320000   24.900000 C     2 SER     0.5973 ****
 17 O      31.436000   29.249000   24.910000 O     2 SER    -0.5679 ****
 18 N      29.530000   30.348000   25.428000 N     3 ALA    -0.4157 ****
 19 H      28.525000   30.269000   25.428000 H     3 ALA     0.2719 ****
 20 CA     30.066000   31.701000   25.618000 C     3 ALA     0.0337 ****
 21 HA     29.230000   32.309000   25.964000 H     3 ALA     0.0823 ****
 22 CB     31.105000   31.723000   26.753000 C     3 ALA    -0.1825 ****
 23 HB1    32.018000   31.215000   26.441000 H     3 ALA     0.0603 ****
 24 HB2    31.352000   32.753000   27.011000 H     3 ALA     0.0603 ****
 25 HB3    30.702000   31.226000   27.635000 H     3 ALA     0.0603 ****
 26 C      30.551000   32.372000   24.308000 C     3 ALA     0.5973 ****
 27 O      30.678000   31.744000   23.257000 O     3 ALA    -0.5679 ****
 28 N      30.740000   33.693000   24.358000 N     4 ALA    -0.4157 ****
 29 H      30.642000   34.166000   25.244000 H     4 ALA     0.2719 ****
 30 CA     31.189000   34.518000   23.236000 C     4 ALA     0.0337 ****
 31 HA     31.871000   33.933000   22.617000 H     4 ALA     0.0823 ****
 32 CB     29.970000   34.910000   22.387000 C     4 ALA    -0.1825 ****
 33 HB1    29.271000   35.495000   22.987000 H     4 ALA     0.0603 ****
 34 HB2    30.288000   35.504000   21.530000 H     4 ALA     0.0603 ****
 35 HB3    29.467000   34.012000   22.025000 H     4 ALA     0.0603 ****
 36 C      31.949000   35.758000   23.742000 C     4 ALA     0.5973 ****
 37 O      31.798000   36.151000   24.899000 O     4 ALA    -0.5679 ****
 38 N      32.755000   36.379000   22.871000 N     5 NME    -0.4157 ****
 39 H      32.824000   36.000000   21.939000 H     5 NME     0.2719 ****
 40 CH3    33.541000   37.569000   23.190000 C     5 NME    -0.1490 ****
 41 HH31   34.227000   37.349000   24.011000 H     5 NME     0.0976 ****
 42 HH32   34.114000   37.891000   22.319000 H     5 NME     0.0976 ****
 43 HH33   32.876000   38.377000   23.502000 H     5 NME     0.0976 ****
@<TRIPOS>BOND
    1     5     6 1
    2     5     7 1
    3     2     3 1
    4     2     4 1
    5     2     5 1
    6     1     2 1
    7    16    17 1
    8    16    18 1
    9    14    15 1
   10    11    12 1
   11    11    13 1
   12    11    14 1
   13     9    10 1
   14     9    11 1
   15     9    16 1
   16     7     8 1
   17     7     9 1
   18    26    27 1
   19    26    28 1
   20    22    23 1
   21    22    24 1
   22    22    25 1
   23    20    21 1
   24    20    22 1
   25    20    26 1
   26    18    19 1
   27    18    20 1
   28    36    37 1
   29    36    38 1
   30    32    33 1
   31    32    34 1
   32    32    35 1
   33    30    31 1
   34    30    32 1
   35    30    36 1
   36    28    29 1
   37    28    30 1
   38    40    41 1
   39    40    42 1
   40    40    43 1
   41    38    39 1
   42    38    40 1
@<TRIPOS>SUBSTRUCTURE
      1  ACE              1 ****               0 ****  **** 
      2  SER              7 ****               0 ****  **** 
      3  ALA             18 ****               0 ****  **** 
      4  ALA             28 ****               0 ****  **** 
      5  NME             38 ****               0 ****  **** 
