@<TRIPOS>MOLECULE
default_name
   43    42     5     0     1 
SMALL
USER_CHARGES
@<TRIPOS>ATOM
  1 H1     25.763000   25.357000   23.176000 H     1 ACE     0.1123 ****
  2 CH3    26.019000   26.380000   22.904000 C     1 ACE    -0.3662 ****
  3 H2     25.203000   27.046000   23.176000 H     1 ACE     0.1123 ****
  4 H3     26.206000   26.438000   21.833000 H     1 ACE     0.1123 ****
  5 C      27.266000   26.787000   23.653000 C     1 ACE     0.5972 ****
  6 O      27.814000   25.999000   24.411000 O     1 ACE    -0.5679 ****
  7 N      27.717000   28.020000   23.430000 N     2 SER    -0.4157 ****
  8 H      27.189000   28.623000   22.816000 H     2 SER     0.2719 ****
  9 CA     28.855000   28.640000   24.124000 C     2 SER    -0.0249 ****
 10 HA     28.809000   28.375000   25.181000 H     2 SER     0.0843 ****
 11 CB     30.174000   28.096000   23.557000 C     2 SER     0.2117 ****
 12 HB2    30.152000   27.005000   23.566000 H     2 SER     0.0352 ****
 13 HB3    30.297000   28.440000   22.529000 H     2 SER     0.0352 ****
 14 OG     31.265000   28.535000   24.343000 O     2 SER    -0.6546 ****
 15 HG     32.084000   28.236000   23.936000 H     2 SER     0.4275 ****
 16 C      28.784000   30.173000   24.012000 C     2 SER     0.5973 ****
 17 O      27.931000   30.701000   23.296000 O     2 SER    -0.5679 ****
 18 N      29.667000   30.887000   24.712000 N     3 ALA    -0.4157 ****
 19 H      30.417000   30.370000   25.154000 H     3 ALA     0.2719 ****
 20 CA     29.780000   32.347000   24.692000 C     3 ALA     0.0337 ****
 21 HA     29.020000   32.759000   24.027000 H     3 ALA     0.0823 ****
 22 CB     29.495000   32.869000   26.107000 C     3 ALA    -0.1825 ****
 23 HB1    30.249000   32.493000   26.801000 H     3 ALA     0.0603 ****
 24 HB2    29.515000   33.960000   26.114000 H     3 ALA     0.0603 ****
 25 HB3    28.509000   32.535000   26.432000 H     3 ALA     0.0603 ****
 26 C      31.150000   32.814000   24.159000 C     3 ALA     0.5973 ****
 27 O      32.097000   32.035000   24.061000 O     3 ALA    -0.5679 ****
 28 N      31.263000   34.107000   23.845000 N     4 ALA    -0.4157 ****
 29 H      30.469000   34.715000   23.990000 H     4 ALA     0.2719 ****
 30 CA     32.487000   34.749000   23.365000 C     4 ALA     0.0337 ****
 31 HA     33.348000   34.260000   23.824000 H     4 ALA     0.0823 ****
 32 CB     32.577000   34.569000   21.843000 C     4 ALA    -0.1825 ****
 33 HB1    31.725000   35.050000   21.360000 H     4 ALA     0.0603 ****
 34 HB2    33.498000   35.015000   21.467000 H     4 ALA     0.0603 ****
 35 HB3    32.577000   33.506000   21.596000 H     4 ALA     0.0603 ****
 36 C      32.519000   36.237000   23.764000 C     4 ALA     0.5973 ****
 37 O      31.482000   36.818000   24.082000 O     4 ALA    -0.5679 ****
 38 N      33.709000   36.851000   23.736000 N     5 NME    -0.4157 ****
 39 H      34.513000   36.310000   23.459000 H     5 NME     0.2719 ****
 40 CH3    33.910000   38.258000   24.079000 C     5 NME    -0.1490 ****
 41 HH31   33.590000   38.436000   25.108000 H     5 NME     0.0976 ****
 42 HH32   34.963000   38.527000   23.978000 H     5 NME     0.0976 ****
 43 HH33   33.313000   38.888000   23.416000 H     5 NME     0.0976 ****
@<TRIPOS>BOND
    1     5     6 1
    2     5     7 1
    3     2     3 1
    4     2     4 1
    5     2     5 1
    6     1     2 1
    7    16    17 1
    8    16    18 1
    9    14    15 1
   10    11    12 1
   11    11    13 1
   12    11    14 1
   13     9    10 1
   14     9    11 1
   15     9    16 1
   16     7     8 1
   17     7     9 1
   18    26    27 1
   19    26    28 1
   20    22    23 1
   21    22    24 1
   22    22    25 1
   23    20    21 1
   24    20    22 1
   25    20    26 1
   26    18    19 1
   27    18    20 1
   28    36    37 1
   29    36    38 1
   30    32    33 1
   31    32    34 1
   32    32    35 1
   33    30    31 1
   34    30    32 1
   35    30    36 1
   36    28    29 1
   37    28    30 1
   38    40    41 1
   39    40    42 1
   40    40    43 1
   41    38    39 1
   42    38    40 1
@<TRIPOS>SUBSTRUCTURE
      1  ACE              1 ****               0 ****  **** 
      2  SER              7 ****               0 ****  **** 
      3  ALA             18 ****               0 ****  **** 
      4  ALA             28 ****               0 ****  **** 
      5  NME             38 ****               0 ****  **** 
