@<TRIPOS>MOLECULE
default_name
   43    42     5     0     1 
SMALL
USER_CHARGES
@<TRIPOS>ATOM
  1 H1     25.748000   27.770000   21.781000 H     1 ACE     0.1123 ****
  2 CH3    26.130000   28.770000   21.984000 C     1 ACE    -0.3662 ****
  3 H2     25.407000   29.320000   22.584000 H     1 ACE     0.1123 ****
  4 H3     26.307000   29.290000   21.045000 H     1 ACE     0.1123 ****
  5 C      27.428000   28.652000   22.747000 C     1 ACE     0.5972 ****
  6 O      27.881000   27.551000   23.030000 O     1 ACE    -0.5679 ****
  7 N      28.036000   29.789000   23.074000 N     2 SER    -0.4157 ****
  8 H      27.606000   30.663000   22.809000 H     2 SER     0.2719 ****
  9 CA     29.283000   29.867000   23.846000 C     2 SER    -0.0249 ****
 10 HA     29.261000   29.114000   24.635000 H     2 SER     0.0843 ****
 11 CB     30.478000   29.572000   22.931000 C     2 SER     0.2117 ****
 12 HB2    30.421000   28.537000   22.591000 H     2 SER     0.0352 ****
 13 HB3    30.443000   30.232000   22.062000 H     2 SER     0.0352 ****
 14 OG     31.699000   29.777000   23.618000 O     2 SER    -0.6546 ****
 15 HG     32.398000   29.324000   23.132000 H     2 SER     0.4275 ****
 16 C      29.444000   31.245000   24.491000 C     2 SER     0.5973 ****
 17 O      29.051000   32.253000   23.904000 O     2 SER    -0.5679 ****
 18 N      30.085000   31.310000   25.662000 N     3 ALA    -0.4157 ****
 19 H      30.434000   30.455000   26.067000 H     3 ALA     0.2719 ****
 20 CA     30.416000   32.574000   26.328000 C     3 ALA     0.0337 ****
 21 HA     29.565000   33.250000   26.233000 H     3 ALA     0.0823 ****
 22 CB     30.621000   32.281000   27.821000 C     3 ALA    -0.1825 ****
 23 HB1    31.486000   31.631000   27.961000 H     3 ALA     0.0603 ****
 24 HB2    30.792000   33.215000   28.358000 H     3 ALA     0.0603 ****
 25 HB3    29.733000   31.800000   28.233000 H     3 ALA     0.0603 ****
 26 C      31.633000   33.302000   25.704000 C     3 ALA     0.5973 ****
 27 O      32.136000   34.264000   26.276000 O     3 ALA    -0.5679 ****
 28 N      32.060000   32.901000   24.501000 N     4 ALA    -0.4157 ****
 29 H      31.648000   32.067000   24.110000 H     4 ALA     0.2719 ****
 30 CA     33.015000   33.635000   23.667000 C     4 ALA     0.0337 ****
 31 HA     33.772000   34.088000   24.310000 H     4 ALA     0.0823 ****
 32 CB     33.708000   32.620000   22.748000 C     4 ALA    -0.1825 ****
 33 HB1    32.980000   32.164000   22.077000 H     4 ALA     0.0603 ****
 34 HB2    34.468000   33.129000   22.153000 H     4 ALA     0.0603 ****
 35 HB3    34.190000   31.847000   23.347000 H     4 ALA     0.0603 ****
 36 C      32.369000   34.783000   22.854000 C     4 ALA     0.5973 ****
 37 O      33.083000   35.552000   22.215000 O     4 ALA    -0.5679 ****
 38 N      31.032000   34.891000   22.851000 N     5 NME    -0.4157 ****
 39 H      30.504000   34.214000   23.382000 H     5 NME     0.2719 ****
 40 CH3    30.292000   35.928000   22.135000 C     5 NME    -0.1490 ****
 41 HH31   30.556000   35.906000   21.076000 H     5 NME     0.0976 ****
 42 HH32   29.219000   35.766000   22.244000 H     5 NME     0.0976 ****
 43 HH33   30.552000   36.908000   22.539000 H     5 NME     0.0976 ****
@<TRIPOS>BOND
    1     5     6 1
    2     5     7 1
    3     2     3 1
    4     2     4 1
    5     2     5 1
    6     1     2 1
    7    16    17 1
    8    16    18 1
    9    14    15 1
   10    11    12 1
   11    11    13 1
   12    11    14 1
   13     9    10 1
   14     9    11 1
   15     9    16 1
   16     7     8 1
   17     7     9 1
   18    26    27 1
   19    26    28 1
   20    22    23 1
   21    22    24 1
   22    22    25 1
   23    20    21 1
   24    20    22 1
   25    20    26 1
   26    18    19 1
   27    18    20 1
   28    36    37 1
   29    36    38 1
   30    32    33 1
   31    32    34 1
   32    32    35 1
   33    30    31 1
   34    30    32 1
   35    30    36 1
   36    28    29 1
   37    28    30 1
   38    40    41 1
   39    40    42 1
   40    40    43 1
   41    38    39 1
   42    38    40 1
@<TRIPOS>SUBSTRUCTURE
      1  ACE              1 ****               0 ****  **** 
      2  SER              7 ****               0 ****  **** 
      3  ALA             18 ****               0 ****  **** 
      4  ALA             28 ****               0 ****  **** 
      5  NME             38 ****               0 ****  **** 
