@<TRIPOS>MOLECULE
default_name
   43    42     5     0     1 
SMALL
USER_CHARGES
@<TRIPOS>ATOM
  1 H1     26.348000   26.437000   21.876000 H     1 ACE     0.1123 ****
  2 CH3    26.825000   27.414000   21.803000 C     1 ACE    -0.3662 ****
  3 H2     26.063000   28.190000   21.777000 H     1 ACE     0.1123 ****
  4 H3     27.432000   27.458000   20.901000 H     1 ACE     0.1123 ****
  5 C      27.706000   27.619000   23.013000 C     1 ACE     0.5972 ****
  6 O      27.794000   26.749000   23.868000 O     1 ACE    -0.5679 ****
  7 N      28.369000   28.771000   23.080000 N     2 SER    -0.4157 ****
  8 H      28.232000   29.453000   22.347000 H     2 SER     0.2719 ****
  9 CA     29.210000   29.185000   24.211000 C     2 SER    -0.0249 ****
 10 HA     28.713000   28.900000   25.139000 H     2 SER     0.0843 ****
 11 CB     30.559000   28.456000   24.152000 C     2 SER     0.2117 ****
 12 HB2    30.383000   27.379000   24.160000 H     2 SER     0.0352 ****
 13 HB3    31.078000   28.722000   23.230000 H     2 SER     0.0352 ****
 14 OG     31.364000   28.798000   25.265000 O     2 SER    -0.6546 ****
 15 HG     32.067000   28.143000   25.340000 H     2 SER     0.4275 ****
 16 C      29.404000   30.708000   24.219000 C     2 SER     0.5973 ****
 17 O      29.205000   31.348000   23.191000 O     2 SER    -0.5679 ****
 18 N      29.772000   31.262000   25.381000 N     3 ALA    -0.4157 ****
 19 H      29.952000   30.597000   26.117000 H     3 ALA     0.2719 ****
 20 CA     30.088000   32.663000   25.714000 C     3 ALA     0.0337 ****
 21 HA     29.222000   33.061000   26.245000 H     3 ALA     0.0823 ****
 22 CB     31.258000   32.644000   26.708000 C     3 ALA    -0.1825 ****
 23 HB1    32.149000   32.230000   26.233000 H     3 ALA     0.0603 ****
 24 HB2    31.470000   33.660000   27.043000 H     3 ALA     0.0603 ****
 25 HB3    31.000000   32.037000   27.577000 H     3 ALA     0.0603 ****
 26 C      30.365000   33.670000   24.572000 C     3 ALA     0.5973 ****
 27 O      29.874000   34.793000   24.636000 O     3 ALA    -0.5679 ****
 28 N      31.202000   33.305000   23.592000 N     4 ALA    -0.4157 ****
 29 H      31.481000   32.337000   23.591000 H     4 ALA     0.2719 ****
 30 CA     31.604000   34.103000   22.421000 C     4 ALA     0.0337 ****
 31 HA     32.321000   33.490000   21.875000 H     4 ALA     0.0823 ****
 32 CB     30.397000   34.273000   21.484000 C     4 ALA    -0.1825 ****
 33 HB1    29.653000   34.922000   21.947000 H     4 ALA     0.0603 ****
 34 HB2    30.721000   34.723000   20.545000 H     4 ALA     0.0603 ****
 35 HB3    29.947000   33.302000   21.275000 H     4 ALA     0.0603 ****
 36 C      32.362000   35.430000   22.687000 C     4 ALA     0.5973 ****
 37 O      32.722000   36.119000   21.735000 O     4 ALA    -0.5679 ****
 38 N      32.667000   35.772000   23.947000 N     5 NME    -0.4157 ****
 39 H      32.321000   35.184000   24.685000 H     5 NME     0.2719 ****
 40 CH3    33.383000   36.992000   24.317000 C     5 NME    -0.1490 ****
 41 HH31   32.812000   37.863000   23.989000 H     5 NME     0.0976 ****
 42 HH32   33.519000   37.037000   25.398000 H     5 NME     0.0976 ****
 43 HH33   34.358000   37.011000   23.826000 H     5 NME     0.0976 ****
@<TRIPOS>BOND
    1     5     6 1
    2     5     7 1
    3     2     3 1
    4     2     4 1
    5     2     5 1
    6     1     2 1
    7    16    17 1
    8    16    18 1
    9    14    15 1
   10    11    12 1
   11    11    13 1
   12    11    14 1
   13     9    10 1
   14     9    11 1
   15     9    16 1
   16     7     8 1
   17     7     9 1
   18    26    27 1
   19    26    28 1
   20    22    23 1
   21    22    24 1
   22    22    25 1
   23    20    21 1
   24    20    22 1
   25    20    26 1
   26    18    19 1
   27    18    20 1
   28    36    37 1
   29    36    38 1
   30    32    33 1
   31    32    34 1
   32    32    35 1
   33    30    31 1
   34    30    32 1
   35    30    36 1
   36    28    29 1
   37    28    30 1
   38    40    41 1
   39    40    42 1
   40    40    43 1
   41    38    39 1
   42    38    40 1
@<TRIPOS>SUBSTRUCTURE
      1  ACE              1 ****               0 ****  **** 
      2  SER              7 ****               0 ****  **** 
      3  ALA             18 ****               0 ****  **** 
      4  ALA             28 ****               0 ****  **** 
      5  NME             38 ****               0 ****  **** 
