@<TRIPOS>MOLECULE
default_name
   43    42     5     0     1 
SMALL
USER_CHARGES
@<TRIPOS>ATOM
  1 H1     27.390000   28.757000   20.715000 H     1 ACE     0.1123 ****
  2 CH3    27.332000   29.617000   21.379000 C     1 ACE    -0.3662 ****
  3 H2     26.343000   30.068000   21.307000 H     1 ACE     0.1123 ****
  4 H3     28.089000   30.352000   21.106000 H     1 ACE     0.1123 ****
  5 C      27.565000   29.170000   22.802000 C     1 ACE     0.5972 ****
  6 O      26.709000   29.362000   23.655000 O     1 ACE    -0.5679 ****
  7 N      28.738000   28.592000   23.059000 N     2 SER    -0.4157 ****
  8 H      29.390000   28.516000   22.295000 H     2 SER     0.2719 ****
  9 CA     29.193000   28.153000   24.391000 C     2 SER    -0.0249 ****
 10 HA     28.317000   27.979000   25.017000 H     2 SER     0.0843 ****
 11 CB     29.923000   26.808000   24.262000 C     2 SER     0.2117 ****
 12 HB2    29.256000   26.078000   23.800000 H     2 SER     0.0352 ****
 13 HB3    30.805000   26.929000   23.632000 H     2 SER     0.0352 ****
 14 OG     30.317000   26.330000   25.529000 O     2 SER    -0.6546 ****
 15 HG     30.929000   26.989000   25.892000 H     2 SER     0.4275 ****
 16 C      30.037000   29.234000   25.097000 C     2 SER     0.5973 ****
 17 O      31.139000   28.949000   25.564000 O     2 SER    -0.5679 ****
 18 N      29.529000   30.474000   25.089000 N     3 ALA    -0.4157 ****
 19 H      28.613000   30.553000   24.678000 H     3 ALA     0.2719 ****
 20 CA     30.168000   31.763000   25.401000 C     3 ALA     0.0337 ****
 21 HA     29.389000   32.352000   25.887000 H     3 ALA     0.0823 ****
 22 CB     31.300000   31.679000   26.442000 C     3 ALA    -0.1825 ****
 23 HB1    32.187000   31.226000   25.996000 H     3 ALA     0.0603 ****
 24 HB2    31.560000   32.678000   26.792000 H     3 ALA     0.0603 ****
 25 HB3    30.978000   31.083000   27.297000 H     3 ALA     0.0603 ****
 26 C      30.511000   32.555000   24.121000 C     3 ALA     0.5973 ****
 27 O      30.417000   32.035000   23.009000 O     3 ALA    -0.5679 ****
 28 N      30.891000   33.825000   24.278000 N     4 ALA    -0.4157 ****
 29 H      30.991000   34.191000   25.215000 H     4 ALA     0.2719 ****
 30 CA     31.280000   34.726000   23.193000 C     4 ALA     0.0337 ****
 31 HA     31.781000   34.148000   22.415000 H     4 ALA     0.0823 ****
 32 CB     30.016000   35.361000   22.596000 C     4 ALA    -0.1825 ****
 33 HB1    29.496000   35.944000   23.358000 H     4 ALA     0.0603 ****
 34 HB2    30.284000   36.017000   21.767000 H     4 ALA     0.0603 ****
 35 HB3    29.350000   34.582000   22.223000 H     4 ALA     0.0603 ****
 36 C      32.265000   35.796000   23.700000 C     4 ALA     0.5973 ****
 37 O      32.343000   36.048000   24.903000 O     4 ALA    -0.5679 ****
 38 N      33.006000   36.431000   22.783000 N     5 NME    -0.4157 ****
 39 H      32.882000   36.174000   21.816000 H     5 NME     0.2719 ****
 40 CH3    33.981000   37.473000   23.099000 C     5 NME    -0.1490 ****
 41 HH31   34.746000   37.072000   23.767000 H     5 NME     0.0976 ****
 42 HH32   34.455000   37.839000   22.187000 H     5 NME     0.0976 ****
 43 HH33   33.482000   38.303000   23.604000 H     5 NME     0.0976 ****
@<TRIPOS>BOND
    1     5     6 1
    2     5     7 1
    3     2     3 1
    4     2     4 1
    5     2     5 1
    6     1     2 1
    7    16    17 1
    8    16    18 1
    9    14    15 1
   10    11    12 1
   11    11    13 1
   12    11    14 1
   13     9    10 1
   14     9    11 1
   15     9    16 1
   16     7     8 1
   17     7     9 1
   18    26    27 1
   19    26    28 1
   20    22    23 1
   21    22    24 1
   22    22    25 1
   23    20    21 1
   24    20    22 1
   25    20    26 1
   26    18    19 1
   27    18    20 1
   28    36    37 1
   29    36    38 1
   30    32    33 1
   31    32    34 1
   32    32    35 1
   33    30    31 1
   34    30    32 1
   35    30    36 1
   36    28    29 1
   37    28    30 1
   38    40    41 1
   39    40    42 1
   40    40    43 1
   41    38    39 1
   42    38    40 1
@<TRIPOS>SUBSTRUCTURE
      1  ACE              1 ****               0 ****  **** 
      2  SER              7 ****               0 ****  **** 
      3  ALA             18 ****               0 ****  **** 
      4  ALA             28 ****               0 ****  **** 
      5  NME             38 ****               0 ****  **** 
