@<TRIPOS>MOLECULE
default_name
   43    42     5     0     1 
SMALL
USER_CHARGES
@<TRIPOS>ATOM
  1 H1     27.846000   31.003000   20.637000 H     1 ACE     0.1123 ****
  2 CH3    28.380000   30.080000   20.859000 C     1 ACE    -0.3662 ****
  3 H2     29.346000   30.088000   20.356000 H     1 ACE     0.1123 ****
  4 H3     27.791000   29.230000   20.520000 H     1 ACE     0.1123 ****
  5 C      28.593000   29.982000   22.351000 C     1 ACE     0.5972 ****
  6 O      28.208000   30.883000   23.086000 O     1 ACE    -0.5679 ****
  7 N      29.213000   28.889000   22.796000 N     2 SER    -0.4157 ****
  8 H      29.517000   28.214000   22.113000 H     2 SER     0.2719 ****
  9 CA     29.552000   28.642000   24.206000 C     2 SER    -0.0249 ****
 10 HA     28.662000   28.799000   24.817000 H     2 SER     0.0843 ****
 11 CB     29.982000   27.180000   24.382000 C     2 SER     0.2117 ****
 12 HB2    29.135000   26.528000   24.161000 H     2 SER     0.0352 ****
 13 HB3    30.796000   26.948000   23.693000 H     2 SER     0.0352 ****
 14 OG     30.415000   26.948000   25.704000 O     2 SER    -0.6546 ****
 15 HG     31.296000   27.336000   25.795000 H     2 SER     0.4275 ****
 16 C      30.648000   29.601000   24.695000 C     2 SER     0.5973 ****
 17 O      31.830000   29.320000   24.518000 O     2 SER    -0.5679 ****
 18 N      30.229000   30.735000   25.269000 N     3 ALA    -0.4157 ****
 19 H      29.230000   30.848000   25.342000 H     3 ALA     0.2719 ****
 20 CA     31.046000   31.844000   25.781000 C     3 ALA     0.0337 ****
 21 HA     30.379000   32.397000   26.442000 H     3 ALA     0.0823 ****
 22 CB     32.192000   31.374000   26.695000 C     3 ALA    -0.1825 ****
 23 HB1    32.987000   30.921000   26.103000 H     3 ALA     0.0603 ****
 24 HB2    32.608000   32.232000   27.224000 H     3 ALA     0.0603 ****
 25 HB3    31.821000   30.652000   27.423000 H     3 ALA     0.0603 ****
 26 C      31.411000   32.871000   24.687000 C     3 ALA     0.5973 ****
 27 O      32.544000   33.341000   24.605000 O     3 ALA    -0.5679 ****
 28 N      30.435000   33.245000   23.852000 N     4 ALA    -0.4157 ****
 29 H      29.529000   32.812000   23.940000 H     4 ALA     0.2719 ****
 30 CA     30.598000   34.247000   22.800000 C     4 ALA     0.0337 ****
 31 HA     31.560000   34.090000   22.310000 H     4 ALA     0.0823 ****
 32 CB     29.498000   34.018000   21.752000 C     4 ALA    -0.1825 ****
 33 HB1    28.514000   34.131000   22.210000 H     4 ALA     0.0603 ****
 34 HB2    29.600000   34.749000   20.950000 H     4 ALA     0.0603 ****
 35 HB3    29.587000   33.015000   21.334000 H     4 ALA     0.0603 ****
 36 C      30.589000   35.679000   23.378000 C     4 ALA     0.5973 ****
 37 O      29.532000   36.290000   23.533000 O     4 ALA    -0.5679 ****
 38 N      31.773000   36.210000   23.705000 N     5 NME    -0.4157 ****
 39 H      32.589000   35.621000   23.616000 H     5 NME     0.2719 ****
 40 CH3    31.948000   37.549000   24.263000 C     5 NME    -0.1490 ****
 41 HH31   31.565000   38.293000   23.562000 H     5 NME     0.0976 ****
 42 HH32   31.391000   37.632000   25.198000 H     5 NME     0.0976 ****
 43 HH33   33.004000   37.742000   24.455000 H     5 NME     0.0976 ****
@<TRIPOS>BOND
    1     5     6 1
    2     5     7 1
    3     2     3 1
    4     2     4 1
    5     2     5 1
    6     1     2 1
    7    16    17 1
    8    16    18 1
    9    14    15 1
   10    11    12 1
   11    11    13 1
   12    11    14 1
   13     9    10 1
   14     9    11 1
   15     9    16 1
   16     7     8 1
   17     7     9 1
   18    26    27 1
   19    26    28 1
   20    22    23 1
   21    22    24 1
   22    22    25 1
   23    20    21 1
   24    20    22 1
   25    20    26 1
   26    18    19 1
   27    18    20 1
   28    36    37 1
   29    36    38 1
   30    32    33 1
   31    32    34 1
   32    32    35 1
   33    30    31 1
   34    30    32 1
   35    30    36 1
   36    28    29 1
   37    28    30 1
   38    40    41 1
   39    40    42 1
   40    40    43 1
   41    38    39 1
   42    38    40 1
@<TRIPOS>SUBSTRUCTURE
      1  ACE              1 ****               0 ****  **** 
      2  SER              7 ****               0 ****  **** 
      3  ALA             18 ****               0 ****  **** 
      4  ALA             28 ****               0 ****  **** 
      5  NME             38 ****               0 ****  **** 
