@<TRIPOS>MOLECULE
default_name
   43    42     5     0     1 
SMALL
USER_CHARGES
@<TRIPOS>ATOM
  1 H1     26.690000   25.899000   25.252000 H     1 ACE     0.1123 ****
  2 CH3    27.310000   26.125000   24.386000 C     1 ACE    -0.3662 ****
  3 H2     26.676000   26.277000   23.514000 H     1 ACE     0.1123 ****
  4 H3     28.001000   25.304000   24.206000 H     1 ACE     0.1123 ****
  5 C      28.090000   27.389000   24.660000 C     1 ACE     0.5972 ****
  6 O      27.958000   27.977000   25.726000 O     1 ACE    -0.5679 ****
  7 N      28.910000   27.807000   23.698000 N     2 SER    -0.4157 ****
  8 H      28.923000   27.300000   22.829000 H     2 SER     0.2719 ****
  9 CA     29.628000   29.085000   23.771000 C     2 SER    -0.0249 ****
 10 HA     30.034000   29.202000   24.777000 H     2 SER     0.0843 ****
 11 CB     30.801000   29.106000   22.784000 C     2 SER     0.2117 ****
 12 HB2    31.482000   28.289000   23.026000 H     2 SER     0.0352 ****
 13 HB3    30.430000   28.967000   21.767000 H     2 SER     0.0352 ****
 14 OG     31.510000   30.331000   22.860000 O     2 SER    -0.6546 ****
 15 HG     31.046000   31.009000   22.335000 H     2 SER     0.4275 ****
 16 C      28.704000   30.267000   23.474000 C     2 SER     0.5973 ****
 17 O      27.974000   30.244000   22.485000 O     2 SER    -0.5679 ****
 18 N      28.831000   31.342000   24.257000 N     3 ALA    -0.4157 ****
 19 H      29.402000   31.252000   25.081000 H     3 ALA     0.2719 ****
 20 CA     28.579000   32.690000   23.753000 C     3 ALA     0.0337 ****
 21 HA     27.795000   32.656000   22.994000 H     3 ALA     0.0823 ****
 22 CB     28.067000   33.569000   24.907000 C     3 ALA    -0.1825 ****
 23 HB1    28.793000   33.600000   25.720000 H     3 ALA     0.0603 ****
 24 HB2    27.879000   34.581000   24.546000 H     3 ALA     0.0603 ****
 25 HB3    27.131000   33.157000   25.287000 H     3 ALA     0.0603 ****
 26 C      29.859000   33.200000   23.053000 C     3 ALA     0.5973 ****
 27 O      30.223000   32.692000   21.993000 O     3 ALA    -0.5679 ****
 28 N      30.614000   34.099000   23.691000 N     4 ALA    -0.4157 ****
 29 H      30.306000   34.439000   24.591000 H     4 ALA     0.2719 ****
 30 CA     31.923000   34.571000   23.240000 C     4 ALA     0.0337 ****
 31 HA     32.437000   33.757000   22.726000 H     4 ALA     0.0823 ****
 32 CB     31.721000   35.727000   22.248000 C     4 ALA    -0.1825 ****
 33 HB1    31.206000   36.554000   22.740000 H     4 ALA     0.0603 ****
 34 HB2    32.687000   36.075000   21.881000 H     4 ALA     0.0603 ****
 35 HB3    31.126000   35.387000   21.400000 H     4 ALA     0.0603 ****
 36 C      32.789000   34.996000   24.440000 C     4 ALA     0.5973 ****
 37 O      32.263000   35.263000   25.521000 O     4 ALA    -0.5679 ****
 38 N      34.112000   35.067000   24.246000 N     5 NME    -0.4157 ****
 39 H      34.468000   34.834000   23.332000 H     5 NME     0.2719 ****
 40 CH3    35.069000   35.457000   25.280000 C     5 NME    -0.1490 ****
 41 HH31   34.833000   36.459000   25.643000 H     5 NME     0.0976 ****
 42 HH32   35.008000   34.761000   26.119000 H     5 NME     0.0976 ****
 43 HH33   36.084000   35.449000   24.879000 H     5 NME     0.0976 ****
@<TRIPOS>BOND
    1     5     6 1
    2     5     7 1
    3     2     3 1
    4     2     4 1
    5     2     5 1
    6     1     2 1
    7    16    17 1
    8    16    18 1
    9    14    15 1
   10    11    12 1
   11    11    13 1
   12    11    14 1
   13     9    10 1
   14     9    11 1
   15     9    16 1
   16     7     8 1
   17     7     9 1
   18    26    27 1
   19    26    28 1
   20    22    23 1
   21    22    24 1
   22    22    25 1
   23    20    21 1
   24    20    22 1
   25    20    26 1
   26    18    19 1
   27    18    20 1
   28    36    37 1
   29    36    38 1
   30    32    33 1
   31    32    34 1
   32    32    35 1
   33    30    31 1
   34    30    32 1
   35    30    36 1
   36    28    29 1
   37    28    30 1
   38    40    41 1
   39    40    42 1
   40    40    43 1
   41    38    39 1
   42    38    40 1
@<TRIPOS>SUBSTRUCTURE
      1  ACE              1 ****               0 ****  **** 
      2  SER              7 ****               0 ****  **** 
      3  ALA             18 ****               0 ****  **** 
      4  ALA             28 ****               0 ****  **** 
      5  NME             38 ****               0 ****  **** 
