@<TRIPOS>MOLECULE
default_name
   43    42     5     0     1 
SMALL
USER_CHARGES
@<TRIPOS>ATOM
  1 H1     25.836000   25.586000   23.004000 H     1 ACE     0.1123 ****
  2 CH3    25.979000   26.663000   22.924000 C     1 ACE    -0.3662 ****
  3 H2     25.251000   27.176000   23.549000 H     1 ACE     0.1123 ****
  4 H3     25.861000   26.972000   21.887000 H     1 ACE     0.1123 ****
  5 C      27.372000   27.009000   23.395000 C     1 ACE     0.5972 ****
  6 O      28.129000   26.127000   23.776000 O     1 ACE    -0.5679 ****
  7 N      27.711000   28.295000   23.358000 N     2 SER    -0.4157 ****
  8 H      27.024000   28.969000   23.051000 H     2 SER     0.2719 ****
  9 CA     28.985000   28.842000   23.845000 C     2 SER    -0.0249 ****
 10 HA     29.248000   28.344000   24.779000 H     2 SER     0.0843 ****
 11 CB     30.097000   28.560000   22.826000 C     2 SER     0.2117 ****
 12 HB2    30.145000   27.487000   22.636000 H     2 SER     0.0352 ****
 13 HB3    29.876000   29.076000   21.891000 H     2 SER     0.0352 ****
 14 OG     31.349000   28.992000   23.322000 O     2 SER    -0.6546 ****
 15 HG     32.044000   28.622000   22.768000 H     2 SER     0.4275 ****
 16 C      28.854000   30.347000   24.126000 C     2 SER     0.5973 ****
 17 O      27.901000   30.979000   23.667000 O     2 SER    -0.5679 ****
 18 N      29.795000   30.921000   24.878000 N     3 ALA    -0.4157 ****
 19 H      30.595000   30.357000   25.132000 H     3 ALA     0.2719 ****
 20 CA     29.830000   32.334000   25.251000 C     3 ALA     0.0337 ****
 21 HA     29.134000   32.888000   24.619000 H     3 ALA     0.0823 ****
 22 CB     29.356000   32.480000   26.703000 C     3 ALA    -0.1825 ****
 23 HB1    30.022000   31.931000   27.370000 H     3 ALA     0.0603 ****
 24 HB2    29.357000   33.533000   26.985000 H     3 ALA     0.0603 ****
 25 HB3    28.343000   32.087000   26.801000 H     3 ALA     0.0603 ****
 26 C      31.235000   32.920000   25.027000 C     3 ALA     0.5973 ****
 27 O      32.205000   32.463000   25.629000 O     3 ALA    -0.5679 ****
 28 N      31.346000   33.923000   24.154000 N     4 ALA    -0.4157 ****
 29 H      30.513000   34.277000   23.705000 H     4 ALA     0.2719 ****
 30 CA     32.599000   34.600000   23.816000 C     4 ALA     0.0337 ****
 31 HA     33.240000   34.619000   24.699000 H     4 ALA     0.0823 ****
 32 CB     33.311000   33.802000   22.713000 C     4 ALA    -0.1825 ****
 33 HB1    32.687000   33.767000   21.819000 H     4 ALA     0.0603 ****
 34 HB2    34.263000   34.272000   22.467000 H     4 ALA     0.0603 ****
 35 HB3    33.501000   32.784000   23.058000 H     4 ALA     0.0603 ****
 36 C      32.342000   36.056000   23.386000 C     4 ALA     0.5973 ****
 37 O      31.225000   36.406000   23.007000 O     4 ALA    -0.5679 ****
 38 N      33.382000   36.899000   23.433000 N     5 NME    -0.4157 ****
 39 H      34.269000   36.537000   23.748000 H     5 NME     0.2719 ****
 40 CH3    33.309000   38.308000   23.052000 C     5 NME    -0.1490 ****
 41 HH31   32.575000   38.821000   23.678000 H     5 NME     0.0976 ****
 42 HH32   34.282000   38.786000   23.174000 H     5 NME     0.0976 ****
 43 HH33   32.994000   38.393000   22.010000 H     5 NME     0.0976 ****
@<TRIPOS>BOND
    1     5     6 1
    2     5     7 1
    3     2     3 1
    4     2     4 1
    5     2     5 1
    6     1     2 1
    7    16    17 1
    8    16    18 1
    9    14    15 1
   10    11    12 1
   11    11    13 1
   12    11    14 1
   13     9    10 1
   14     9    11 1
   15     9    16 1
   16     7     8 1
   17     7     9 1
   18    26    27 1
   19    26    28 1
   20    22    23 1
   21    22    24 1
   22    22    25 1
   23    20    21 1
   24    20    22 1
   25    20    26 1
   26    18    19 1
   27    18    20 1
   28    36    37 1
   29    36    38 1
   30    32    33 1
   31    32    34 1
   32    32    35 1
   33    30    31 1
   34    30    32 1
   35    30    36 1
   36    28    29 1
   37    28    30 1
   38    40    41 1
   39    40    42 1
   40    40    43 1
   41    38    39 1
   42    38    40 1
@<TRIPOS>SUBSTRUCTURE
      1  ACE              1 ****               0 ****  **** 
      2  SER              7 ****               0 ****  **** 
      3  ALA             18 ****               0 ****  **** 
      4  ALA             28 ****               0 ****  **** 
      5  NME             38 ****               0 ****  **** 
