@<TRIPOS>MOLECULE
default_name
   43    42     5     0     1 
SMALL
USER_CHARGES
@<TRIPOS>ATOM
  1 H1     26.446000   26.333000   21.886000 H     1 ACE     0.1123 ****
  2 CH3    26.384000   27.244000   22.479000 C     1 ACE    -0.3662 ****
  3 H2     26.008000   27.008000   23.473000 H     1 ACE     0.1123 ****
  4 H3     25.720000   27.955000   21.990000 H     1 ACE     0.1123 ****
  5 C      27.764000   27.847000   22.598000 C     1 ACE     0.5972 ****
  6 O      28.719000   27.306000   22.059000 O     1 ACE    -0.5679 ****
  7 N      27.862000   28.973000   23.301000 N     2 SER    -0.4157 ****
  8 H      27.034000   29.328000   23.757000 H     2 SER     0.2719 ****
  9 CA     29.122000   29.660000   23.615000 C     2 SER    -0.0249 ****
 10 HA     29.877000   28.914000   23.865000 H     2 SER     0.0843 ****
 11 CB     29.621000   30.442000   22.382000 C     2 SER     0.2117 ****
 12 HB2    29.629000   29.785000   21.511000 H     2 SER     0.0352 ****
 13 HB3    28.945000   31.276000   22.186000 H     2 SER     0.0352 ****
 14 OG     30.938000   30.934000   22.590000 O     2 SER    -0.6546 ****
 15 HG     31.013000   31.834000   22.217000 H     2 SER     0.4275 ****
 16 C      28.940000   30.581000   24.837000 C     2 SER     0.5973 ****
 17 O      27.874000   30.618000   25.449000 O     2 SER    -0.5679 ****
 18 N      29.975000   31.356000   25.152000 N     3 ALA    -0.4157 ****
 19 H      30.759000   31.281000   24.518000 H     3 ALA     0.2719 ****
 20 CA     30.012000   32.407000   26.171000 C     3 ALA     0.0337 ****
 21 HA     29.024000   32.866000   26.252000 H     3 ALA     0.0823 ****
 22 CB     30.373000   31.774000   27.521000 C     3 ALA    -0.1825 ****
 23 HB1    31.351000   31.295000   27.466000 H     3 ALA     0.0603 ****
 24 HB2    30.395000   32.547000   28.291000 H     3 ALA     0.0603 ****
 25 HB3    29.622000   31.031000   27.792000 H     3 ALA     0.0603 ****
 26 C      31.012000   33.513000   25.778000 C     3 ALA     0.5973 ****
 27 O      30.769000   34.689000   26.034000 O     3 ALA    -0.5679 ****
 28 N      32.097000   33.159000   25.077000 N     4 ALA    -0.4157 ****
 29 H      32.266000   32.180000   24.916000 H     4 ALA     0.2719 ****
 30 CA     32.853000   34.107000   24.262000 C     4 ALA     0.0337 ****
 31 HA     33.001000   35.023000   24.836000 H     4 ALA     0.0823 ****
 32 CB     34.229000   33.504000   23.953000 C     4 ALA    -0.1825 ****
 33 HB1    34.113000   32.584000   23.377000 H     4 ALA     0.0603 ****
 34 HB2    34.820000   34.213000   23.373000 H     4 ALA     0.0603 ****
 35 HB3    34.755000   33.283000   24.883000 H     4 ALA     0.0603 ****
 36 C      32.082000   34.460000   22.971000 C     4 ALA     0.5973 ****
 37 O      31.429000   33.598000   22.374000 O     4 ALA    -0.5679 ****
 38 N      32.188000   35.717000   22.522000 N     5 NME    -0.4157 ****
 39 H      32.726000   36.370000   23.071000 H     5 NME     0.2719 ****
 40 CH3    31.533000   36.213000   21.314000 C     5 NME    -0.1490 ****
 41 HH31   30.450000   36.123000   21.419000 H     5 NME     0.0976 ****
 42 HH32   31.790000   37.259000   21.146000 H     5 NME     0.0976 ****
 43 HH33   31.849000   35.622000   20.452000 H     5 NME     0.0976 ****
@<TRIPOS>BOND
    1     5     6 1
    2     5     7 1
    3     2     3 1
    4     2     4 1
    5     2     5 1
    6     1     2 1
    7    16    17 1
    8    16    18 1
    9    14    15 1
   10    11    12 1
   11    11    13 1
   12    11    14 1
   13     9    10 1
   14     9    11 1
   15     9    16 1
   16     7     8 1
   17     7     9 1
   18    26    27 1
   19    26    28 1
   20    22    23 1
   21    22    24 1
   22    22    25 1
   23    20    21 1
   24    20    22 1
   25    20    26 1
   26    18    19 1
   27    18    20 1
   28    36    37 1
   29    36    38 1
   30    32    33 1
   31    32    34 1
   32    32    35 1
   33    30    31 1
   34    30    32 1
   35    30    36 1
   36    28    29 1
   37    28    30 1
   38    40    41 1
   39    40    42 1
   40    40    43 1
   41    38    39 1
   42    38    40 1
@<TRIPOS>SUBSTRUCTURE
      1  ACE              1 ****               0 ****  **** 
      2  SER              7 ****               0 ****  **** 
      3  ALA             18 ****               0 ****  **** 
      4  ALA             28 ****               0 ****  **** 
      5  NME             38 ****               0 ****  **** 
