@<TRIPOS>MOLECULE
default_name
   43    42     5     0     1 
SMALL
USER_CHARGES
@<TRIPOS>ATOM
  1 H1     24.953000   29.338000   25.924000 H     1 ACE     0.1123 ****
  2 CH3    25.531000   29.685000   25.068000 C     1 ACE    -0.3662 ****
  3 H2     25.507000   30.772000   25.028000 H     1 ACE     0.1123 ****
  4 H3     25.114000   29.270000   24.153000 H     1 ACE     0.1123 ****
  5 C      26.961000   29.223000   25.222000 C     1 ACE     0.5972 ****
  6 O      27.295000   28.559000   26.195000 O     1 ACE    -0.5679 ****
  7 N      27.808000   29.568000   24.256000 N     2 SER    -0.4157 ****
  8 H      27.474000   30.149000   23.499000 H     2 SER     0.2719 ****
  9 CA     29.251000   29.297000   24.283000 C     2 SER    -0.0249 ****
 10 HA     29.619000   29.491000   25.291000 H     2 SER     0.0843 ****
 11 CB     29.518000   27.824000   23.947000 C     2 SER     0.2117 ****
 12 HB2    28.822000   27.185000   24.493000 H     2 SER     0.0352 ****
 13 HB3    29.377000   27.663000   22.877000 H     2 SER     0.0352 ****
 14 OG     30.839000   27.478000   24.315000 O     2 SER    -0.6546 ****
 15 HG     30.804000   27.064000   25.185000 H     2 SER     0.4275 ****
 16 C      30.004000   30.225000   23.316000 C     2 SER     0.5973 ****
 17 O      29.372000   30.969000   22.568000 O     2 SER    -0.5679 ****
 18 N      31.340000   30.206000   23.370000 N     3 ALA    -0.4157 ****
 19 H      31.737000   29.518000   23.994000 H     3 ALA     0.2719 ****
 20 CA     32.292000   30.913000   22.500000 C     3 ALA     0.0337 ****
 21 HA     33.159000   30.252000   22.465000 H     3 ALA     0.0823 ****
 22 CB     31.864000   31.028000   21.026000 C     3 ALA    -0.1825 ****
 23 HB1    31.507000   30.063000   20.665000 H     3 ALA     0.0603 ****
 24 HB2    31.076000   31.773000   20.908000 H     3 ALA     0.0603 ****
 25 HB3    32.720000   31.336000   20.425000 H     3 ALA     0.0603 ****
 26 C      32.845000   32.187000   23.153000 C     3 ALA     0.5973 ****
 27 O      33.983000   32.207000   23.617000 O     3 ALA    -0.5679 ****
 28 N      32.034000   33.247000   23.189000 N     4 ALA    -0.4157 ****
 29 H      31.089000   33.138000   22.841000 H     4 ALA     0.2719 ****
 30 CA     32.381000   34.545000   23.765000 C     4 ALA     0.0337 ****
 31 HA     33.084000   34.389000   24.586000 H     4 ALA     0.0823 ****
 32 CB     33.075000   35.393000   22.689000 C     4 ALA    -0.1825 ****
 33 HB1    32.393000   35.562000   21.854000 H     4 ALA     0.0603 ****
 34 HB2    33.374000   36.355000   23.106000 H     4 ALA     0.0603 ****
 35 HB3    33.964000   34.876000   22.327000 H     4 ALA     0.0603 ****
 36 C      31.142000   35.259000   24.340000 C     4 ALA     0.5973 ****
 37 O      30.012000   34.949000   23.968000 O     4 ALA    -0.5679 ****
 38 N      31.361000   36.226000   25.240000 N     5 NME    -0.4157 ****
 39 H      32.316000   36.430000   25.491000 H     5 NME     0.2719 ****
 40 CH3    30.300000   37.005000   25.876000 C     5 NME    -0.1490 ****
 41 HH31   29.630000   36.337000   26.421000 H     5 NME     0.0976 ****
 42 HH32   30.726000   37.732000   26.569000 H     5 NME     0.0976 ****
 43 HH33   29.721000   37.529000   25.113000 H     5 NME     0.0976 ****
@<TRIPOS>BOND
    1     5     6 1
    2     5     7 1
    3     2     3 1
    4     2     4 1
    5     2     5 1
    6     1     2 1
    7    16    17 1
    8    16    18 1
    9    14    15 1
   10    11    12 1
   11    11    13 1
   12    11    14 1
   13     9    10 1
   14     9    11 1
   15     9    16 1
   16     7     8 1
   17     7     9 1
   18    26    27 1
   19    26    28 1
   20    22    23 1
   21    22    24 1
   22    22    25 1
   23    20    21 1
   24    20    22 1
   25    20    26 1
   26    18    19 1
   27    18    20 1
   28    36    37 1
   29    36    38 1
   30    32    33 1
   31    32    34 1
   32    32    35 1
   33    30    31 1
   34    30    32 1
   35    30    36 1
   36    28    29 1
   37    28    30 1
   38    40    41 1
   39    40    42 1
   40    40    43 1
   41    38    39 1
   42    38    40 1
@<TRIPOS>SUBSTRUCTURE
      1  ACE              1 ****               0 ****  **** 
      2  SER              7 ****               0 ****  **** 
      3  ALA             18 ****               0 ****  **** 
      4  ALA             28 ****               0 ****  **** 
      5  NME             38 ****               0 ****  **** 
