@<TRIPOS>MOLECULE
default_name
   43    42     5     0     1 
SMALL
USER_CHARGES
@<TRIPOS>ATOM
  1 H1     26.313000   27.051000   21.212000 H     1 ACE     0.1123 ****
  2 CH3    27.183000   27.704000   21.268000 C     1 ACE    -0.3662 ****
  3 H2     26.968000   28.642000   20.760000 H     1 ACE     0.1123 ****
  4 H3     28.037000   27.216000   20.803000 H     1 ACE     0.1123 ****
  5 C      27.493000   27.982000   22.720000 C     1 ACE     0.5972 ****
  6 O      26.805000   27.489000   23.603000 O     1 ACE    -0.5679 ****
  7 N      28.537000   28.769000   22.967000 N     2 SER    -0.4157 ****
  8 H      29.043000   29.162000   22.186000 H     2 SER     0.2719 ****
  9 CA     28.951000   29.218000   24.304000 C     2 SER    -0.0249 ****
 10 HA     28.057000   29.456000   24.882000 H     2 SER     0.0843 ****
 11 CB     29.691000   28.084000   25.027000 C     2 SER     0.2117 ****
 12 HB2    29.072000   27.186000   25.012000 H     2 SER     0.0352 ****
 13 HB3    30.630000   27.874000   24.512000 H     2 SER     0.0352 ****
 14 OG     29.952000   28.433000   26.374000 O     2 SER    -0.6546 ****
 15 HG     30.242000   27.642000   26.840000 H     2 SER     0.4275 ****
 16 C      29.810000   30.491000   24.213000 C     2 SER     0.5973 ****
 17 O      30.235000   30.844000   23.117000 O     2 SER    -0.5679 ****
 18 N      30.062000   31.117000   25.370000 N     3 ALA    -0.4157 ****
 19 H      29.768000   30.565000   26.165000 H     3 ALA     0.2719 ****
 20 CA     30.663000   32.414000   25.751000 C     3 ALA     0.0337 ****
 21 HA     29.821000   33.056000   26.009000 H     3 ALA     0.0823 ****
 22 CB     31.423000   32.167000   27.066000 C     3 ALA    -0.1825 ****
 23 HB1    32.295000   31.540000   26.876000 H     3 ALA     0.0603 ****
 24 HB2    31.755000   33.118000   27.487000 H     3 ALA     0.0603 ****
 25 HB3    30.775000   31.674000   27.792000 H     3 ALA     0.0603 ****
 26 C      31.488000   33.269000   24.741000 C     3 ALA     0.5973 ****
 27 O      32.603000   33.688000   25.054000 O     3 ALA    -0.5679 ****
 28 N      31.002000   33.510000   23.520000 N     4 ALA    -0.4157 ****
 29 H      30.049000   33.263000   23.317000 H     4 ALA     0.2719 ****
 30 CA     31.718000   34.258000   22.487000 C     4 ALA     0.0337 ****
 31 HA     32.760000   33.936000   22.479000 H     4 ALA     0.0823 ****
 32 CB     31.108000   33.893000   21.126000 C     4 ALA    -0.1825 ****
 33 HB1    30.056000   34.182000   21.095000 H     4 ALA     0.0603 ****
 34 HB2    31.642000   34.418000   20.333000 H     4 ALA     0.0603 ****
 35 HB3    31.190000   32.818000   20.960000 H     4 ALA     0.0603 ****
 36 C      31.688000   35.776000   22.768000 C     4 ALA     0.5973 ****
 37 O      30.736000   36.465000   22.406000 O     4 ALA    -0.5679 ****
 38 N      32.734000   36.292000   23.423000 N     5 NME    -0.4157 ****
 39 H      33.434000   35.647000   23.761000 H     5 NME     0.2719 ****
 40 CH3    32.873000   37.706000   23.768000 C     5 NME    -0.1490 ****
 41 HH31   32.039000   38.012000   24.402000 H     5 NME     0.0976 ****
 42 HH32   33.810000   37.873000   24.301000 H     5 NME     0.0976 ****
 43 HH33   32.861000   38.310000   22.859000 H     5 NME     0.0976 ****
@<TRIPOS>BOND
    1     5     6 1
    2     5     7 1
    3     2     3 1
    4     2     4 1
    5     2     5 1
    6     1     2 1
    7    16    17 1
    8    16    18 1
    9    14    15 1
   10    11    12 1
   11    11    13 1
   12    11    14 1
   13     9    10 1
   14     9    11 1
   15     9    16 1
   16     7     8 1
   17     7     9 1
   18    26    27 1
   19    26    28 1
   20    22    23 1
   21    22    24 1
   22    22    25 1
   23    20    21 1
   24    20    22 1
   25    20    26 1
   26    18    19 1
   27    18    20 1
   28    36    37 1
   29    36    38 1
   30    32    33 1
   31    32    34 1
   32    32    35 1
   33    30    31 1
   34    30    32 1
   35    30    36 1
   36    28    29 1
   37    28    30 1
   38    40    41 1
   39    40    42 1
   40    40    43 1
   41    38    39 1
   42    38    40 1
@<TRIPOS>SUBSTRUCTURE
      1  ACE              1 ****               0 ****  **** 
      2  SER              7 ****               0 ****  **** 
      3  ALA             18 ****               0 ****  **** 
      4  ALA             28 ****               0 ****  **** 
      5  NME             38 ****               0 ****  **** 
