@<TRIPOS>MOLECULE
default_name
   43    42     5     0     1 
SMALL
USER_CHARGES
@<TRIPOS>ATOM
  1 H1     26.454000   25.292000   23.698000 H     1 ACE     0.1123 ****
  2 CH3    26.375000   26.372000   23.581000 C     1 ACE    -0.3662 ****
  3 H2     25.719000   26.775000   24.350000 H     1 ACE     0.1123 ****
  4 H3     25.979000   26.606000   22.595000 H     1 ACE     0.1123 ****
  5 C      27.750000   26.981000   23.728000 C     1 ACE     0.5972 ****
  6 O      28.722000   26.268000   23.936000 O     1 ACE    -0.5679 ****
  7 N      27.832000   28.304000   23.609000 N     2 SER    -0.4157 ****
  8 H      26.984000   28.832000   23.455000 H     2 SER     0.2719 ****
  9 CA     29.062000   29.086000   23.795000 C     2 SER    -0.0249 ****
 10 HA     29.608000   28.683000   24.648000 H     2 SER     0.0843 ****
 11 CB     29.955000   28.957000   22.553000 C     2 SER     0.2117 ****
 12 HB2    30.166000   27.902000   22.374000 H     2 SER     0.0352 ****
 13 HB3    29.432000   29.363000   21.685000 H     2 SER     0.0352 ****
 14 OG     31.180000   29.645000   22.731000 O     2 SER    -0.6546 ****
 15 HG     31.803000   29.319000   22.072000 H     2 SER     0.4275 ****
 16 C      28.731000   30.555000   24.086000 C     2 SER     0.5973 ****
 17 O      27.621000   31.007000   23.807000 O     2 SER    -0.5679 ****
 18 N      29.693000   31.302000   24.631000 N     3 ALA    -0.4157 ****
 19 H      30.592000   30.862000   24.766000 H     3 ALA     0.2719 ****
 20 CA     29.564000   32.717000   24.985000 C     3 ALA     0.0337 ****
 21 HA     28.907000   33.205000   24.263000 H     3 ALA     0.0823 ****
 22 CB     28.910000   32.821000   26.373000 C     3 ALA    -0.1825 ****
 23 HB1    29.535000   32.330000   27.120000 H     3 ALA     0.0603 ****
 24 HB2    28.792000   33.871000   26.643000 H     3 ALA     0.0603 ****
 25 HB3    27.926000   32.350000   26.357000 H     3 ALA     0.0603 ****
 26 C      30.935000   33.420000   24.905000 C     3 ALA     0.5973 ****
 27 O      31.474000   33.913000   25.894000 O     3 ALA    -0.5679 ****
 28 N      31.527000   33.429000   23.708000 N     4 ALA    -0.4157 ****
 29 H      31.037000   33.022000   22.927000 H     4 ALA     0.2719 ****
 30 CA     32.773000   34.142000   23.437000 C     4 ALA     0.0337 ****
 31 HA     33.463000   33.959000   24.263000 H     4 ALA     0.0823 ****
 32 CB     33.400000   33.573000   22.158000 C     4 ALA    -0.1825 ****
 33 HB1    32.734000   33.741000   21.310000 H     4 ALA     0.0603 ****
 34 HB2    34.351000   34.069000   21.964000 H     4 ALA     0.0603 ****
 35 HB3    33.575000   32.502000   22.275000 H     4 ALA     0.0603 ****
 36 C      32.537000   35.662000   23.333000 C     4 ALA     0.5973 ****
 37 O      31.619000   36.102000   22.643000 O     4 ALA    -0.5679 ****
 38 N      33.391000   36.460000   23.987000 N     5 NME    -0.4157 ****
 39 H      34.099000   36.025000   24.557000 H     5 NME     0.2719 ****
 40 CH3    33.311000   37.919000   23.982000 C     5 NME    -0.1490 ****
 41 HH31   32.361000   38.235000   24.418000 H     5 NME     0.0976 ****
 42 HH32   34.131000   38.346000   24.559000 H     5 NME     0.0976 ****
 43 HH33   33.360000   38.288000   22.955000 H     5 NME     0.0976 ****
@<TRIPOS>BOND
    1     5     6 1
    2     5     7 1
    3     2     3 1
    4     2     4 1
    5     2     5 1
    6     1     2 1
    7    16    17 1
    8    16    18 1
    9    14    15 1
   10    11    12 1
   11    11    13 1
   12    11    14 1
   13     9    10 1
   14     9    11 1
   15     9    16 1
   16     7     8 1
   17     7     9 1
   18    26    27 1
   19    26    28 1
   20    22    23 1
   21    22    24 1
   22    22    25 1
   23    20    21 1
   24    20    22 1
   25    20    26 1
   26    18    19 1
   27    18    20 1
   28    36    37 1
   29    36    38 1
   30    32    33 1
   31    32    34 1
   32    32    35 1
   33    30    31 1
   34    30    32 1
   35    30    36 1
   36    28    29 1
   37    28    30 1
   38    40    41 1
   39    40    42 1
   40    40    43 1
   41    38    39 1
   42    38    40 1
@<TRIPOS>SUBSTRUCTURE
      1  ACE              1 ****               0 ****  **** 
      2  SER              7 ****               0 ****  **** 
      3  ALA             18 ****               0 ****  **** 
      4  ALA             28 ****               0 ****  **** 
      5  NME             38 ****               0 ****  **** 
