@<TRIPOS>MOLECULE
default_name
   43    42     5     0     1 
SMALL
USER_CHARGES
@<TRIPOS>ATOM
  1 H1     27.013000   31.465000   21.190000 H     1 ACE     0.1123 ****
  2 CH3    27.622000   30.562000   21.148000 C     1 ACE    -0.3662 ****
  3 H2     28.455000   30.719000   20.465000 H     1 ACE     0.1123 ****
  4 H3     27.013000   29.727000   20.808000 H     1 ACE     0.1123 ****
  5 C      28.155000   30.268000   22.530000 C     1 ACE     0.5972 ****
  6 O      27.875000   31.002000   23.470000 O     1 ACE    -0.5679 ****
  7 N      28.940000   29.199000   22.658000 N     2 SER    -0.4157 ****
  8 H      29.153000   28.662000   21.833000 H     2 SER     0.2719 ****
  9 CA     29.587000   28.830000   23.926000 C     2 SER    -0.0249 ****
 10 HA     28.815000   28.678000   24.680000 H     2 SER     0.0843 ****
 11 CB     30.352000   27.513000   23.764000 C     2 SER     0.2117 ****
 12 HB2    29.646000   26.718000   23.522000 H     2 SER     0.0352 ****
 13 HB3    31.077000   27.603000   22.953000 H     2 SER     0.0352 ****
 14 OG     31.027000   27.185000   24.960000 O     2 SER    -0.6546 ****
 15 HG     31.868000   27.657000   24.976000 H     2 SER     0.4275 ****
 16 C      30.528000   29.943000   24.401000 C     2 SER     0.5973 ****
 17 O      31.510000   30.233000   23.723000 O     2 SER    -0.5679 ****
 18 N      30.246000   30.514000   25.579000 N     3 ALA    -0.4157 ****
 19 H      29.451000   30.131000   26.064000 H     3 ALA     0.2719 ****
 20 CA     30.748000   31.791000   26.120000 C     3 ALA     0.0337 ****
 21 HA     29.895000   32.304000   26.564000 H     3 ALA     0.0823 ****
 22 CB     31.720000   31.450000   27.261000 C     3 ALA    -0.1825 ****
 23 HB1    32.606000   30.959000   26.856000 H     3 ALA     0.0603 ****
 24 HB2    32.026000   32.364000   27.772000 H     3 ALA     0.0603 ****
 25 HB3    31.238000   30.790000   27.982000 H     3 ALA     0.0603 ****
 26 C      31.357000   32.801000   25.106000 C     3 ALA     0.5973 ****
 27 O      32.396000   33.411000   25.357000 O     3 ALA    -0.5679 ****
 28 N      30.699000   32.989000   23.957000 N     4 ALA    -0.4157 ****
 29 H      29.847000   32.471000   23.810000 H     4 ALA     0.2719 ****
 30 CA     31.149000   33.852000   22.869000 C     4 ALA     0.0337 ****
 31 HA     32.230000   33.745000   22.764000 H     4 ALA     0.0823 ****
 32 CB     30.502000   33.345000   21.572000 C     4 ALA    -0.1825 ****
 33 HB1    29.415000   33.406000   21.647000 H     4 ALA     0.0603 ****
 34 HB2    30.834000   33.958000   20.734000 H     4 ALA     0.0603 ****
 35 HB3    30.795000   32.309000   21.395000 H     4 ALA     0.0603 ****
 36 C      30.846000   35.339000   23.153000 C     4 ALA     0.5973 ****
 37 O      29.783000   35.847000   22.798000 O     4 ALA    -0.5679 ****
 38 N      31.787000   36.040000   23.797000 N     5 NME    -0.4157 ****
 39 H      32.610000   35.543000   24.107000 H     5 NME     0.2719 ****
 40 CH3    31.665000   37.454000   24.147000 C     5 NME    -0.1490 ****
 41 HH31   30.787000   37.601000   24.779000 H     5 NME     0.0976 ****
 42 HH32   32.555000   37.787000   24.683000 H     5 NME     0.0976 ****
 43 HH33   31.545000   38.048000   23.239000 H     5 NME     0.0976 ****
@<TRIPOS>BOND
    1     5     6 1
    2     5     7 1
    3     2     3 1
    4     2     4 1
    5     2     5 1
    6     1     2 1
    7    16    17 1
    8    16    18 1
    9    14    15 1
   10    11    12 1
   11    11    13 1
   12    11    14 1
   13     9    10 1
   14     9    11 1
   15     9    16 1
   16     7     8 1
   17     7     9 1
   18    26    27 1
   19    26    28 1
   20    22    23 1
   21    22    24 1
   22    22    25 1
   23    20    21 1
   24    20    22 1
   25    20    26 1
   26    18    19 1
   27    18    20 1
   28    36    37 1
   29    36    38 1
   30    32    33 1
   31    32    34 1
   32    32    35 1
   33    30    31 1
   34    30    32 1
   35    30    36 1
   36    28    29 1
   37    28    30 1
   38    40    41 1
   39    40    42 1
   40    40    43 1
   41    38    39 1
   42    38    40 1
@<TRIPOS>SUBSTRUCTURE
      1  ACE              1 ****               0 ****  **** 
      2  SER              7 ****               0 ****  **** 
      3  ALA             18 ****               0 ****  **** 
      4  ALA             28 ****               0 ****  **** 
      5  NME             38 ****               0 ****  **** 
