@<TRIPOS>MOLECULE
default_name
   43    42     5     0     1 
SMALL
USER_CHARGES
@<TRIPOS>ATOM
  1 H1     25.803000   26.378000   22.094000 H     1 ACE     0.1123 ****
  2 CH3    26.063000   27.434000   22.139000 C     1 ACE    -0.3662 ****
  3 H2     25.259000   27.988000   22.620000 H     1 ACE     0.1123 ****
  4 H3     26.226000   27.815000   21.133000 H     1 ACE     0.1123 ****
  5 C      27.330000   27.594000   22.946000 C     1 ACE     0.5972 ****
  6 O      27.888000   26.612000   23.418000 O     1 ACE    -0.5679 ****
  7 N      27.789000   28.834000   23.098000 N     2 SER    -0.4157 ****
  8 H      27.261000   29.599000   22.701000 H     2 SER     0.2719 ****
  9 CA     28.954000   29.203000   23.912000 C     2 SER    -0.0249 ****
 10 HA     28.934000   28.624000   24.836000 H     2 SER     0.0843 ****
 11 CB     30.247000   28.857000   23.161000 C     2 SER     0.2117 ****
 12 HB2    30.224000   27.804000   22.877000 H     2 SER     0.0352 ****
 13 HB3    30.316000   29.463000   22.256000 H     2 SER     0.0352 ****
 14 OG     31.386000   29.084000   23.972000 O     2 SER    -0.6546 ****
 15 HG     32.135000   28.640000   23.562000 H     2 SER     0.4275 ****
 16 C      28.908000   30.694000   24.278000 C     2 SER     0.5973 ****
 17 O      28.118000   31.443000   23.709000 O     2 SER    -0.5679 ****
 18 N      29.739000   31.112000   25.236000 N     3 ALA    -0.4157 ****
 19 H      30.383000   30.424000   25.596000 H     3 ALA     0.2719 ****
 20 CA     29.957000   32.510000   25.605000 C     3 ALA     0.0337 ****
 21 HA     28.984000   33.005000   25.628000 H     3 ALA     0.0823 ****
 22 CB     30.531000   32.575000   27.030000 C     3 ALA    -0.1825 ****
 23 HB1    31.473000   32.029000   27.093000 H     3 ALA     0.0603 ****
 24 HB2    30.694000   33.616000   27.313000 H     3 ALA     0.0603 ****
 25 HB3    29.819000   32.131000   27.729000 H     3 ALA     0.0603 ****
 26 C      30.789000   33.267000   24.545000 C     3 ALA     0.5973 ****
 27 O      30.235000   33.854000   23.622000 O     3 ALA    -0.5679 ****
 28 N      32.121000   33.268000   24.694000 N     4 ALA    -0.4157 ****
 29 H      32.486000   32.768000   25.487000 H     4 ALA     0.2719 ****
 30 CA     33.092000   34.007000   23.879000 C     4 ALA     0.0337 ****
 31 HA     34.064000   33.846000   24.348000 H     4 ALA     0.0823 ****
 32 CB     33.206000   33.388000   22.475000 C     4 ALA    -0.1825 ****
 33 HB1    32.264000   33.486000   21.935000 H     4 ALA     0.0603 ****
 34 HB2    33.993000   33.893000   21.915000 H     4 ALA     0.0603 ****
 35 HB3    33.456000   32.329000   22.559000 H     4 ALA     0.0603 ****
 36 C      32.905000   35.541000   23.908000 C     4 ALA     0.5973 ****
 37 O      33.511000   36.197000   24.752000 O     4 ALA    -0.5679 ****
 38 N      32.099000   36.113000   23.004000 N     5 NME    -0.4157 ****
 39 H      31.597000   35.503000   22.376000 H     5 NME     0.2719 ****
 40 CH3    31.833000   37.548000   22.930000 C     5 NME    -0.1490 ****
 41 HH31   31.389000   37.886000   23.868000 H     5 NME     0.0976 ****
 42 HH32   32.767000   38.089000   22.768000 H     5 NME     0.0976 ****
 43 HH33   31.144000   37.759000   22.111000 H     5 NME     0.0976 ****
@<TRIPOS>BOND
    1     5     6 1
    2     5     7 1
    3     2     3 1
    4     2     4 1
    5     2     5 1
    6     1     2 1
    7    16    17 1
    8    16    18 1
    9    14    15 1
   10    11    12 1
   11    11    13 1
   12    11    14 1
   13     9    10 1
   14     9    11 1
   15     9    16 1
   16     7     8 1
   17     7     9 1
   18    26    27 1
   19    26    28 1
   20    22    23 1
   21    22    24 1
   22    22    25 1
   23    20    21 1
   24    20    22 1
   25    20    26 1
   26    18    19 1
   27    18    20 1
   28    36    37 1
   29    36    38 1
   30    32    33 1
   31    32    34 1
   32    32    35 1
   33    30    31 1
   34    30    32 1
   35    30    36 1
   36    28    29 1
   37    28    30 1
   38    40    41 1
   39    40    42 1
   40    40    43 1
   41    38    39 1
   42    38    40 1
@<TRIPOS>SUBSTRUCTURE
      1  ACE              1 ****               0 ****  **** 
      2  SER              7 ****               0 ****  **** 
      3  ALA             18 ****               0 ****  **** 
      4  ALA             28 ****               0 ****  **** 
      5  NME             38 ****               0 ****  **** 
