@<TRIPOS>MOLECULE
default_name
   43    42     5     0     1 
SMALL
USER_CHARGES
@<TRIPOS>ATOM
  1 H1     25.875000   25.916000   22.140000 H     1 ACE     0.1123 ****
  2 CH3    26.265000   26.930000   22.057000 C     1 ACE    -0.3662 ****
  3 H2     25.457000   27.644000   22.204000 H     1 ACE     0.1123 ****
  4 H3     26.712000   27.071000   21.076000 H     1 ACE     0.1123 ****
  5 C      27.316000   27.138000   23.122000 C     1 ACE     0.5972 ****
  6 O      27.600000   26.230000   23.891000 O     1 ACE    -0.5679 ****
  7 N      27.897000   28.335000   23.158000 N     2 SER    -0.4157 ****
  8 H      27.583000   29.044000   22.510000 H     2 SER     0.2719 ****
  9 CA     28.874000   28.767000   24.167000 C     2 SER    -0.0249 ****
 10 HA     28.556000   28.405000   25.145000 H     2 SER     0.0843 ****
 11 CB     30.249000   28.156000   23.860000 C     2 SER     0.2117 ****
 12 HB2    30.148000   27.077000   23.734000 H     2 SER     0.0352 ****
 13 HB3    30.638000   28.585000   22.935000 H     2 SER     0.0352 ****
 14 OG     31.152000   28.409000   24.921000 O     2 SER    -0.6546 ****
 15 HG     32.024000   28.092000   24.665000 H     2 SER     0.4275 ****
 16 C      28.946000   30.302000   24.224000 C     2 SER     0.5973 ****
 17 O      28.347000   30.983000   23.390000 O     2 SER    -0.5679 ****
 18 N      29.677000   30.853000   25.194000 N     3 ALA    -0.4157 ****
 19 H      30.245000   30.225000   25.748000 H     3 ALA     0.2719 ****
 20 CA     29.907000   32.289000   25.340000 C     3 ALA     0.0337 ****
 21 HA     29.061000   32.829000   24.911000 H     3 ALA     0.0823 ****
 22 CB     29.973000   32.627000   26.834000 C     3 ALA    -0.1825 ****
 23 HB1    30.815000   32.108000   27.296000 H     3 ALA     0.0603 ****
 24 HB2    30.103000   33.702000   26.964000 H     3 ALA     0.0603 ****
 25 HB3    29.048000   32.321000   27.324000 H     3 ALA     0.0603 ****
 26 C      31.182000   32.737000   24.599000 C     3 ALA     0.5973 ****
 27 O      32.162000   31.996000   24.516000 O     3 ALA    -0.5679 ****
 28 N      31.179000   33.969000   24.086000 N     4 ALA    -0.4157 ****
 29 H      30.363000   34.550000   24.215000 H     4 ALA     0.2719 ****
 30 CA     32.299000   34.581000   23.371000 C     4 ALA     0.0337 ****
 31 HA     33.234000   34.205000   23.789000 H     4 ALA     0.0823 ****
 32 CB     32.225000   34.171000   21.893000 C     4 ALA    -0.1825 ****
 33 HB1    31.295000   34.536000   21.452000 H     4 ALA     0.0603 ****
 34 HB2    33.069000   34.591000   21.345000 H     4 ALA     0.0603 ****
 35 HB3    32.258000   33.084000   21.809000 H     4 ALA     0.0603 ****
 36 C      32.289000   36.113000   23.538000 C     4 ALA     0.5973 ****
 37 O      31.264000   36.694000   23.895000 O     4 ALA    -0.5679 ****
 38 N      33.427000   36.764000   23.268000 N     5 NME    -0.4157 ****
 39 H      34.224000   36.219000   22.974000 H     5 NME     0.2719 ****
 40 CH3    33.583000   38.214000   23.369000 C     5 NME    -0.1490 ****
 41 HH31   33.378000   38.536000   24.392000 H     5 NME     0.0976 ****
 42 HH32   34.598000   38.506000   23.097000 H     5 NME     0.0976 ****
 43 HH33   32.875000   38.708000   22.701000 H     5 NME     0.0976 ****
@<TRIPOS>BOND
    1     5     6 1
    2     5     7 1
    3     2     3 1
    4     2     4 1
    5     2     5 1
    6     1     2 1
    7    16    17 1
    8    16    18 1
    9    14    15 1
   10    11    12 1
   11    11    13 1
   12    11    14 1
   13     9    10 1
   14     9    11 1
   15     9    16 1
   16     7     8 1
   17     7     9 1
   18    26    27 1
   19    26    28 1
   20    22    23 1
   21    22    24 1
   22    22    25 1
   23    20    21 1
   24    20    22 1
   25    20    26 1
   26    18    19 1
   27    18    20 1
   28    36    37 1
   29    36    38 1
   30    32    33 1
   31    32    34 1
   32    32    35 1
   33    30    31 1
   34    30    32 1
   35    30    36 1
   36    28    29 1
   37    28    30 1
   38    40    41 1
   39    40    42 1
   40    40    43 1
   41    38    39 1
   42    38    40 1
@<TRIPOS>SUBSTRUCTURE
      1  ACE              1 ****               0 ****  **** 
      2  SER              7 ****               0 ****  **** 
      3  ALA             18 ****               0 ****  **** 
      4  ALA             28 ****               0 ****  **** 
      5  NME             38 ****               0 ****  **** 
