@<TRIPOS>MOLECULE
default_name
   43    42     5     0     1 
SMALL
USER_CHARGES
@<TRIPOS>ATOM
  1 H1     27.990000   30.864000   20.149000 H     1 ACE     0.1123 ****
  2 CH3    27.956000   29.936000   20.719000 C     1 ACE    -0.3662 ****
  3 H2     28.658000   29.222000   20.294000 H     1 ACE     0.1123 ****
  4 H3     26.947000   29.530000   20.694000 H     1 ACE     0.1123 ****
  5 C      28.346000   30.228000   22.149000 C     1 ACE     0.5972 ****
  6 O      28.645000   31.366000   22.487000 O     1 ACE    -0.5679 ****
  7 N      28.347000   29.198000   22.993000 N     2 SER    -0.4157 ****
  8 H      28.127000   28.286000   22.630000 H     2 SER     0.2719 ****
  9 CA     28.772000   29.315000   24.395000 C     2 SER    -0.0249 ****
 10 HA     28.176000   30.094000   24.873000 H     2 SER     0.0843 ****
 11 CB     28.508000   28.001000   25.135000 C     2 SER     0.2117 ****
 12 HB2    27.437000   27.794000   25.122000 H     2 SER     0.0352 ****
 13 HB3    29.032000   27.184000   24.636000 H     2 SER     0.0352 ****
 14 OG     28.944000   28.086000   26.476000 O     2 SER    -0.6546 ****
 15 HG     29.881000   27.864000   26.512000 H     2 SER     0.4275 ****
 16 C      30.253000   29.698000   24.501000 C     2 SER     0.5973 ****
 17 O      31.091000   29.023000   23.909000 O     2 SER    -0.5679 ****
 18 N      30.545000   30.760000   25.264000 N     3 ALA    -0.4157 ****
 19 H      29.754000   31.239000   25.668000 H     3 ALA     0.2719 ****
 20 CA     31.865000   31.340000   25.584000 C     3 ALA     0.0337 ****
 21 HA     31.752000   31.712000   26.603000 H     3 ALA     0.0823 ****
 22 CB     33.001000   30.308000   25.685000 C     3 ALA    -0.1825 ****
 23 HB1    33.299000   29.977000   24.689000 H     3 ALA     0.0603 ****
 24 HB2    33.865000   30.770000   26.165000 H     3 ALA     0.0603 ****
 25 HB3    32.682000   29.452000   26.278000 H     3 ALA     0.0603 ****
 26 C      32.212000   32.613000   24.787000 C     3 ALA     0.5973 ****
 27 O      33.112000   33.355000   25.175000 O     3 ALA    -0.5679 ****
 28 N      31.500000   32.884000   23.689000 N     4 ALA    -0.4157 ****
 29 H      30.766000   32.246000   23.424000 H     4 ALA     0.2719 ****
 30 CA     31.575000   34.161000   22.984000 C     4 ALA     0.0337 ****
 31 HA     32.626000   34.388000   22.799000 H     4 ALA     0.0823 ****
 32 CB     30.868000   34.018000   21.631000 C     4 ALA    -0.1825 ****
 33 HB1    29.809000   33.801000   21.788000 H     4 ALA     0.0603 ****
 34 HB2    30.959000   34.945000   21.065000 H     4 ALA     0.0603 ****
 35 HB3    31.319000   33.206000   21.060000 H     4 ALA     0.0603 ****
 36 C      30.978000   35.311000   23.824000 C     4 ALA     0.5973 ****
 37 O      30.028000   35.114000   24.582000 O     4 ALA    -0.5679 ****
 38 N      31.518000   36.525000   23.656000 N     5 NME    -0.4157 ****
 39 H      32.301000   36.609000   23.028000 H     5 NME     0.2719 ****
 40 CH3    31.070000   37.722000   24.365000 C     5 NME    -0.1490 ****
 41 HH31   31.203000   37.582000   25.440000 H     5 NME     0.0976 ****
 42 HH32   31.644000   38.592000   24.042000 H     5 NME     0.0976 ****
 43 HH33   30.011000   37.893000   24.166000 H     5 NME     0.0976 ****
@<TRIPOS>BOND
    1     5     6 1
    2     5     7 1
    3     2     3 1
    4     2     4 1
    5     2     5 1
    6     1     2 1
    7    16    17 1
    8    16    18 1
    9    14    15 1
   10    11    12 1
   11    11    13 1
   12    11    14 1
   13     9    10 1
   14     9    11 1
   15     9    16 1
   16     7     8 1
   17     7     9 1
   18    26    27 1
   19    26    28 1
   20    22    23 1
   21    22    24 1
   22    22    25 1
   23    20    21 1
   24    20    22 1
   25    20    26 1
   26    18    19 1
   27    18    20 1
   28    36    37 1
   29    36    38 1
   30    32    33 1
   31    32    34 1
   32    32    35 1
   33    30    31 1
   34    30    32 1
   35    30    36 1
   36    28    29 1
   37    28    30 1
   38    40    41 1
   39    40    42 1
   40    40    43 1
   41    38    39 1
   42    38    40 1
@<TRIPOS>SUBSTRUCTURE
      1  ACE              1 ****               0 ****  **** 
      2  SER              7 ****               0 ****  **** 
      3  ALA             18 ****               0 ****  **** 
      4  ALA             28 ****               0 ****  **** 
      5  NME             38 ****               0 ****  **** 
