@<TRIPOS>MOLECULE
default_name
   43    42     5     0     1 
SMALL
USER_CHARGES
@<TRIPOS>ATOM
  1 H1     24.578000   27.518000   24.326000 H     1 ACE     0.1123 ****
  2 CH3    25.478000   27.593000   23.717000 C     1 ACE    -0.3662 ****
  3 H2     25.215000   27.927000   22.716000 H     1 ACE     0.1123 ****
  4 H3     25.969000   26.623000   23.668000 H     1 ACE     0.1123 ****
  5 C      26.414000   28.597000   24.348000 C     1 ACE     0.5972 ****
  6 O      26.100000   29.164000   25.385000 O     1 ACE    -0.5679 ****
  7 N      27.571000   28.807000   23.724000 N     2 SER    -0.4157 ****
  8 H      27.748000   28.321000   22.857000 H     2 SER     0.2719 ****
  9 CA     28.573000   29.805000   24.124000 C     2 SER    -0.0249 ****
 10 HA     28.058000   30.722000   24.411000 H     2 SER     0.0843 ****
 11 CB     29.355000   29.300000   25.345000 C     2 SER     0.2117 ****
 12 HB2    28.653000   29.042000   26.139000 H     2 SER     0.0352 ****
 13 HB3    29.924000   28.409000   25.074000 H     2 SER     0.0352 ****
 14 OG     30.237000   30.300000   25.826000 O     2 SER    -0.6546 ****
 15 HG     30.528000   30.054000   26.710000 H     2 SER     0.4275 ****
 16 C      29.507000   30.134000   22.948000 C     2 SER     0.5973 ****
 17 O      29.492000   29.434000   21.935000 O     2 SER    -0.5679 ****
 18 N      30.331000   31.174000   23.098000 N     3 ALA    -0.4157 ****
 19 H      30.318000   31.602000   24.016000 H     3 ALA     0.2719 ****
 20 CA     31.143000   31.840000   22.073000 C     3 ALA     0.0337 ****
 21 HA     31.960000   31.187000   21.765000 H     3 ALA     0.0823 ****
 22 CB     30.283000   32.195000   20.843000 C     3 ALA    -0.1825 ****
 23 HB1    29.982000   31.292000   20.312000 H     3 ALA     0.0603 ****
 24 HB2    29.392000   32.745000   21.150000 H     3 ALA     0.0603 ****
 25 HB3    30.862000   32.814000   20.157000 H     3 ALA     0.0603 ****
 26 C      31.707000   33.145000   22.669000 C     3 ALA     0.5973 ****
 27 O      30.986000   34.125000   22.846000 O     3 ALA    -0.5679 ****
 28 N      32.998000   33.125000   23.021000 N     4 ALA    -0.4157 ****
 29 H      33.503000   32.269000   22.858000 H     4 ALA     0.2719 ****
 30 CA     33.709000   34.166000   23.773000 C     4 ALA     0.0337 ****
 31 HA     34.706000   33.769000   23.971000 H     4 ALA     0.0823 ****
 32 CB     33.930000   35.416000   22.903000 C     4 ALA    -0.1825 ****
 33 HB1    32.977000   35.873000   22.637000 H     4 ALA     0.0603 ****
 34 HB2    34.533000   36.141000   23.451000 H     4 ALA     0.0603 ****
 35 HB3    34.457000   35.140000   21.988000 H     4 ALA     0.0603 ****
 36 C      33.119000   34.436000   25.175000 C     4 ALA     0.5973 ****
 37 O      33.549000   33.799000   26.135000 O     4 ALA    -0.5679 ****
 38 N      32.159000   35.360000   25.307000 N     5 NME    -0.4157 ****
 39 H      31.823000   35.805000   24.465000 H     5 NME     0.2719 ****
 40 CH3    31.510000   35.699000   26.571000 C     5 NME    -0.1490 ****
 41 HH31   31.006000   34.818000   26.972000 H     5 NME     0.0976 ****
 42 HH32   32.258000   36.034000   27.292000 H     5 NME     0.0976 ****
 43 HH33   30.776000   36.492000   26.416000 H     5 NME     0.0976 ****
@<TRIPOS>BOND
    1     5     6 1
    2     5     7 1
    3     2     3 1
    4     2     4 1
    5     2     5 1
    6     1     2 1
    7    16    17 1
    8    16    18 1
    9    14    15 1
   10    11    12 1
   11    11    13 1
   12    11    14 1
   13     9    10 1
   14     9    11 1
   15     9    16 1
   16     7     8 1
   17     7     9 1
   18    26    27 1
   19    26    28 1
   20    22    23 1
   21    22    24 1
   22    22    25 1
   23    20    21 1
   24    20    22 1
   25    20    26 1
   26    18    19 1
   27    18    20 1
   28    36    37 1
   29    36    38 1
   30    32    33 1
   31    32    34 1
   32    32    35 1
   33    30    31 1
   34    30    32 1
   35    30    36 1
   36    28    29 1
   37    28    30 1
   38    40    41 1
   39    40    42 1
   40    40    43 1
   41    38    39 1
   42    38    40 1
@<TRIPOS>SUBSTRUCTURE
      1  ACE              1 ****               0 ****  **** 
      2  SER              7 ****               0 ****  **** 
      3  ALA             18 ****               0 ****  **** 
      4  ALA             28 ****               0 ****  **** 
      5  NME             38 ****               0 ****  **** 
