@<TRIPOS>MOLECULE
default_name
   43    42     5     0     1 
SMALL
USER_CHARGES
@<TRIPOS>ATOM
  1 H1     26.052000   28.835000   27.144000 H     1 ACE     0.1123 ****
  2 CH3    26.398000   29.513000   26.364000 C     1 ACE    -0.3662 ****
  3 H2     26.716000   30.453000   26.812000 H     1 ACE     0.1123 ****
  4 H3     25.595000   29.693000   25.653000 H     1 ACE     0.1123 ****
  5 C      27.568000   28.880000   25.649000 C     1 ACE     0.5972 ****
  6 O      27.967000   27.770000   25.976000 O     1 ACE    -0.5679 ****
  7 N      28.117000   29.584000   24.662000 N     2 SER    -0.4157 ****
  8 H      27.762000   30.510000   24.468000 H     2 SER     0.2719 ****
  9 CA     29.315000   29.174000   23.917000 C     2 SER    -0.0249 ****
 10 HA     30.035000   28.756000   24.621000 H     2 SER     0.0843 ****
 11 CB     28.951000   28.088000   22.895000 C     2 SER     0.2117 ****
 12 HB2    28.301000   27.344000   23.358000 H     2 SER     0.0352 ****
 13 HB3    28.423000   28.541000   22.054000 H     2 SER     0.0352 ****
 14 OG     30.124000   27.444000   22.435000 O     2 SER    -0.6546 ****
 15 HG     30.255000   26.652000   22.970000 H     2 SER     0.4275 ****
 16 C      29.971000   30.380000   23.226000 C     2 SER     0.5973 ****
 17 O      29.429000   31.484000   23.271000 O     2 SER    -0.5679 ****
 18 N      31.141000   30.181000   22.612000 N     3 ALA    -0.4157 ****
 19 H      31.476000   29.228000   22.579000 H     3 ALA     0.2719 ****
 20 CA     31.901000   31.191000   21.871000 C     3 ALA     0.0337 ****
 21 HA     32.737000   30.649000   21.427000 H     3 ALA     0.0823 ****
 22 CB     31.118000   31.750000   20.669000 C     3 ALA    -0.1825 ****
 23 HB1    31.774000   32.386000   20.072000 H     3 ALA     0.0603 ****
 24 HB2    30.762000   30.928000   20.047000 H     3 ALA     0.0603 ****
 25 HB3    30.264000   32.341000   21.000000 H     3 ALA     0.0603 ****
 26 C      32.581000   32.223000   22.790000 C     3 ALA     0.5973 ****
 27 O      33.714000   32.009000   23.216000 O     3 ALA    -0.5679 ****
 28 N      31.906000   33.337000   23.085000 N     4 ALA    -0.4157 ****
 29 H      30.944000   33.407000   22.778000 H     4 ALA     0.2719 ****
 30 CA     32.408000   34.417000   23.934000 C     4 ALA     0.0337 ****
 31 HA     33.019000   33.983000   24.727000 H     4 ALA     0.0823 ****
 32 CB     33.294000   35.346000   23.090000 C     4 ALA    -0.1825 ****
 33 HB1    32.706000   35.785000   22.282000 H     4 ALA     0.0603 ****
 34 HB2    33.696000   36.145000   23.714000 H     4 ALA     0.0603 ****
 35 HB3    34.124000   34.781000   22.665000 H     4 ALA     0.0603 ****
 36 C      31.255000   35.196000   24.594000 C     4 ALA     0.5973 ****
 37 O      30.151000   35.259000   24.055000 O     4 ALA    -0.5679 ****
 38 N      31.525000   35.814000   25.751000 N     5 NME    -0.4157 ****
 39 H      32.455000   35.727000   26.127000 H     5 NME     0.2719 ****
 40 CH3    30.550000   36.606000   26.500000 C     5 NME    -0.1490 ****
 41 HH31   29.692000   35.982000   26.760000 H     5 NME     0.0976 ****
 42 HH32   31.000000   36.999000   27.412000 H     5 NME     0.0976 ****
 43 HH33   30.199000   37.436000   25.883000 H     5 NME     0.0976 ****
@<TRIPOS>BOND
    1     5     6 1
    2     5     7 1
    3     2     3 1
    4     2     4 1
    5     2     5 1
    6     1     2 1
    7    16    17 1
    8    16    18 1
    9    14    15 1
   10    11    12 1
   11    11    13 1
   12    11    14 1
   13     9    10 1
   14     9    11 1
   15     9    16 1
   16     7     8 1
   17     7     9 1
   18    26    27 1
   19    26    28 1
   20    22    23 1
   21    22    24 1
   22    22    25 1
   23    20    21 1
   24    20    22 1
   25    20    26 1
   26    18    19 1
   27    18    20 1
   28    36    37 1
   29    36    38 1
   30    32    33 1
   31    32    34 1
   32    32    35 1
   33    30    31 1
   34    30    32 1
   35    30    36 1
   36    28    29 1
   37    28    30 1
   38    40    41 1
   39    40    42 1
   40    40    43 1
   41    38    39 1
   42    38    40 1
@<TRIPOS>SUBSTRUCTURE
      1  ACE              1 ****               0 ****  **** 
      2  SER              7 ****               0 ****  **** 
      3  ALA             18 ****               0 ****  **** 
      4  ALA             28 ****               0 ****  **** 
      5  NME             38 ****               0 ****  **** 
