@<TRIPOS>MOLECULE
default_name
   43    42     5     0     1 
SMALL
USER_CHARGES
@<TRIPOS>ATOM
  1 H1     26.146000   26.249000   22.291000 H     1 ACE     0.1123 ****
  2 CH3    26.438000   27.297000   22.236000 C     1 ACE    -0.3662 ****
  3 H2     25.605000   27.924000   22.549000 H     1 ACE     0.1123 ****
  4 H3     26.725000   27.544000   21.215000 H     1 ACE     0.1123 ****
  5 C      27.611000   27.528000   23.158000 C     1 ACE     0.5972 ****
  6 O      28.077000   26.602000   23.807000 O     1 ACE    -0.5679 ****
  7 N      28.097000   28.766000   23.208000 N     2 SER    -0.4157 ****
  8 H      27.647000   29.485000   22.659000 H     2 SER     0.2719 ****
  9 CA     29.182000   29.203000   24.097000 C     2 SER    -0.0249 ****
 10 HA     29.044000   28.739000   25.074000 H     2 SER     0.0843 ****
 11 CB     30.533000   28.740000   23.538000 C     2 SER     0.2117 ****
 12 HB2    30.516000   27.656000   23.412000 H     2 SER     0.0352 ****
 13 HB3    30.706000   29.206000   22.566000 H     2 SER     0.0352 ****
 14 OG     31.584000   29.083000   24.421000 O     2 SER    -0.6546 ****
 15 HG     32.374000   28.600000   24.156000 H     2 SER     0.4275 ****
 16 C      29.151000   30.727000   24.284000 C     2 SER     0.5973 ****
 17 O      28.520000   31.434000   23.498000 O     2 SER    -0.5679 ****
 18 N      29.830000   31.239000   25.312000 N     3 ALA    -0.4157 ****
 19 H      30.398000   30.597000   25.848000 H     3 ALA     0.2719 ****
 20 CA     29.925000   32.663000   25.642000 C     3 ALA     0.0337 ****
 21 HA     29.044000   33.175000   25.251000 H     3 ALA     0.0823 ****
 22 CB     29.898000   32.802000   27.171000 C     3 ALA    -0.1825 ****
 23 HB1    30.765000   32.303000   27.608000 H     3 ALA     0.0603 ****
 24 HB2    29.925000   33.858000   27.443000 H     3 ALA     0.0603 ****
 25 HB3    28.985000   32.357000   27.569000 H     3 ALA     0.0603 ****
 26 C      31.159000   33.323000   24.983000 C     3 ALA     0.5973 ****
 27 O      32.076000   33.782000   25.662000 O     3 ALA    -0.5679 ****
 28 N      31.208000   33.336000   23.647000 N     4 ALA    -0.4157 ****
 29 H      30.420000   32.973000   23.135000 H     4 ALA     0.2719 ****
 30 CA     32.299000   33.922000   22.870000 C     4 ALA     0.0337 ****
 31 HA     33.247000   33.673000   23.352000 H     4 ALA     0.0823 ****
 32 CB     32.296000   33.269000   21.481000 C     4 ALA    -0.1825 ****
 33 HB1    31.353000   33.473000   20.972000 H     4 ALA     0.0603 ****
 34 HB2    33.113000   33.677000   20.884000 H     4 ALA     0.0603 ****
 35 HB3    32.430000   32.191000   21.576000 H     4 ALA     0.0603 ****
 36 C      32.190000   35.461000   22.811000 C     4 ALA     0.5973 ****
 37 O      31.552000   36.013000   21.917000 O     4 ALA    -0.5679 ****
 38 N      32.813000   36.154000   23.773000 N     5 NME    -0.4157 ****
 39 H      33.267000   35.630000   24.508000 H     5 NME     0.2719 ****
 40 CH3    32.810000   37.612000   23.868000 C     5 NME    -0.1490 ****
 41 HH31   31.783000   37.972000   23.949000 H     5 NME     0.0976 ****
 42 HH32   33.374000   37.934000   24.745000 H     5 NME     0.0976 ****
 43 HH33   33.260000   38.041000   22.971000 H     5 NME     0.0976 ****
@<TRIPOS>BOND
    1     5     6 1
    2     5     7 1
    3     2     3 1
    4     2     4 1
    5     2     5 1
    6     1     2 1
    7    16    17 1
    8    16    18 1
    9    14    15 1
   10    11    12 1
   11    11    13 1
   12    11    14 1
   13     9    10 1
   14     9    11 1
   15     9    16 1
   16     7     8 1
   17     7     9 1
   18    26    27 1
   19    26    28 1
   20    22    23 1
   21    22    24 1
   22    22    25 1
   23    20    21 1
   24    20    22 1
   25    20    26 1
   26    18    19 1
   27    18    20 1
   28    36    37 1
   29    36    38 1
   30    32    33 1
   31    32    34 1
   32    32    35 1
   33    30    31 1
   34    30    32 1
   35    30    36 1
   36    28    29 1
   37    28    30 1
   38    40    41 1
   39    40    42 1
   40    40    43 1
   41    38    39 1
   42    38    40 1
@<TRIPOS>SUBSTRUCTURE
      1  ACE              1 ****               0 ****  **** 
      2  SER              7 ****               0 ****  **** 
      3  ALA             18 ****               0 ****  **** 
      4  ALA             28 ****               0 ****  **** 
      5  NME             38 ****               0 ****  **** 
