@<TRIPOS>MOLECULE
default_name
   43    42     5     0     1 
SMALL
USER_CHARGES
@<TRIPOS>ATOM
  1 H1     25.932000   31.963000   23.630000 H     1 ACE     0.1123 ****
  2 CH3    26.904000   31.990000   23.140000 C     1 ACE    -0.3662 ****
  3 H2     27.492000   32.818000   23.531000 H     1 ACE     0.1123 ****
  4 H3     26.772000   32.106000   22.066000 H     1 ACE     0.1123 ****
  5 C      27.630000   30.695000   23.414000 C     1 ACE     0.5972 ****
  6 O      27.111000   29.829000   24.106000 O     1 ACE    -0.5679 ****
  7 N      28.850000   30.578000   22.897000 N     2 SER    -0.4157 ****
  8 H      29.230000   31.395000   22.430000 H     2 SER     0.2719 ****
  9 CA     29.760000   29.439000   23.111000 C     2 SER    -0.0249 ****
 10 HA     29.167000   28.561000   23.372000 H     2 SER     0.0843 ****
 11 CB     30.488000   29.123000   21.797000 C     2 SER     0.2117 ****
 12 HB2    29.753000   28.920000   21.017000 H     2 SER     0.0352 ****
 13 HB3    31.091000   29.982000   21.499000 H     2 SER     0.0352 ****
 14 OG     31.322000   27.994000   21.946000 O     2 SER    -0.6546 ****
 15 HG     31.965000   28.214000   22.638000 H     2 SER     0.4275 ****
 16 C      30.723000   29.703000   24.285000 C     2 SER     0.5973 ****
 17 O      31.931000   29.493000   24.164000 O     2 SER    -0.5679 ****
 18 N      30.185000   30.231000   25.392000 N     3 ALA    -0.4157 ****
 19 H      29.176000   30.235000   25.410000 H     3 ALA     0.2719 ****
 20 CA     30.815000   31.101000   26.398000 C     3 ALA     0.0337 ****
 21 HA     30.056000   31.267000   27.164000 H     3 ALA     0.0823 ****
 22 CB     31.977000   30.395000   27.114000 C     3 ALA    -0.1825 ****
 23 HB1    32.822000   30.261000   26.439000 H     3 ALA     0.0603 ****
 24 HB2    32.301000   30.999000   27.962000 H     3 ALA     0.0603 ****
 25 HB3    31.650000   29.421000   27.478000 H     3 ALA     0.0603 ****
 26 C      31.156000   32.511000   25.865000 C     3 ALA     0.5973 ****
 27 O      30.596000   33.489000   26.353000 O     3 ALA    -0.5679 ****
 28 N      31.974000   32.642000   24.816000 N     4 ALA    -0.4157 ****
 29 H      32.477000   31.840000   24.483000 H     4 ALA     0.2719 ****
 30 CA     32.047000   33.858000   24.010000 C     4 ALA     0.0337 ****
 31 HA     32.138000   34.714000   24.681000 H     4 ALA     0.0823 ****
 32 CB     33.306000   33.795000   23.137000 C     4 ALA    -0.1825 ****
 33 HB1    33.245000   32.944000   22.457000 H     4 ALA     0.0603 ****
 34 HB2    33.396000   34.711000   22.552000 H     4 ALA     0.0603 ****
 35 HB3    34.190000   33.690000   23.768000 H     4 ALA     0.0603 ****
 36 C      30.772000   34.043000   23.158000 C     4 ALA     0.5973 ****
 37 O      30.226000   33.077000   22.620000 O     4 ALA    -0.5679 ****
 38 N      30.317000   35.293000   23.008000 N     5 NME    -0.4157 ****
 39 H      30.805000   36.032000   23.492000 H     5 NME     0.2719 ****
 40 CH3    29.133000   35.649000   22.229000 C     5 NME    -0.1490 ****
 41 HH31   28.240000   35.251000   22.713000 H     5 NME     0.0976 ****
 42 HH32   29.044000   36.734000   22.151000 H     5 NME     0.0976 ****
 43 HH33   29.208000   35.223000   21.226000 H     5 NME     0.0976 ****
@<TRIPOS>BOND
    1     5     6 1
    2     5     7 1
    3     2     3 1
    4     2     4 1
    5     2     5 1
    6     1     2 1
    7    16    17 1
    8    16    18 1
    9    14    15 1
   10    11    12 1
   11    11    13 1
   12    11    14 1
   13     9    10 1
   14     9    11 1
   15     9    16 1
   16     7     8 1
   17     7     9 1
   18    26    27 1
   19    26    28 1
   20    22    23 1
   21    22    24 1
   22    22    25 1
   23    20    21 1
   24    20    22 1
   25    20    26 1
   26    18    19 1
   27    18    20 1
   28    36    37 1
   29    36    38 1
   30    32    33 1
   31    32    34 1
   32    32    35 1
   33    30    31 1
   34    30    32 1
   35    30    36 1
   36    28    29 1
   37    28    30 1
   38    40    41 1
   39    40    42 1
   40    40    43 1
   41    38    39 1
   42    38    40 1
@<TRIPOS>SUBSTRUCTURE
      1  ACE              1 ****               0 ****  **** 
      2  SER              7 ****               0 ****  **** 
      3  ALA             18 ****               0 ****  **** 
      4  ALA             28 ****               0 ****  **** 
      5  NME             38 ****               0 ****  **** 
