@<TRIPOS>MOLECULE
default_name
   40    39     5     0     1 
SMALL
USER_CHARGES
@<TRIPOS>ATOM
  1 H1     26.158000   32.154000   22.879000 H     1 ACE     0.1123 ****
  2 CH3    27.195000   32.117000   22.549000 C     1 ACE    -0.3662 ****
  3 H2     27.756000   32.932000   23.005000 H     1 ACE     0.1123 ****
  4 H3     27.242000   32.199000   21.465000 H     1 ACE     0.1123 ****
  5 C      27.803000   30.802000   22.975000 C     1 ACE     0.5972 ****
  6 O      27.139000   29.989000   23.607000 O     1 ACE    -0.5679 ****
  7 N      29.078000   30.605000   22.653000 N     2 GLY    -0.4157 ****
  8 H      29.567000   31.383000   22.221000 H     2 GLY     0.2719 ****
  9 CA     29.894000   29.469000   23.096000 C     2 GLY    -0.0252 ****
 10 HA2    29.261000   28.597000   23.264000 H     2 GLY     0.0698 ****
 11 HA3    30.624000   29.226000   22.323000 H     2 GLY     0.0698 ****
 12 C      30.643000   29.790000   24.391000 C     2 GLY     0.5973 ****
 13 O      31.865000   29.692000   24.423000 O     2 GLY    -0.5679 ****
 14 N      29.908000   30.195000   25.433000 N     3 ALA    -0.4157 ****
 15 H      28.920000   30.024000   25.322000 H     3 ALA     0.2719 ****
 16 CA     30.195000   31.269000   26.402000 C     3 ALA     0.0337 ****
 17 HA     29.257000   31.481000   26.918000 H     3 ALA     0.0823 ****
 18 CB     31.169000   30.741000   27.465000 C     3 ALA    -0.1825 ****
 19 HB1    32.133000   30.503000   27.012000 H     3 ALA     0.0603 ****
 20 HB2    31.314000   31.498000   28.237000 H     3 ALA     0.0603 ****
 21 HB3    30.761000   29.841000   27.925000 H     3 ALA     0.0603 ****
 22 C      30.656000   32.625000   25.808000 C     3 ALA     0.5973 ****
 23 O      29.937000   33.607000   25.975000 O     3 ALA    -0.5679 ****
 24 N      31.764000   32.716000   25.064000 N     4 SER    -0.4157 ****
 25 H      32.408000   31.948000   25.050000 H     4 SER     0.2719 ****
 26 CA     32.071000   33.879000   24.220000 C     4 SER    -0.0249 ****
 27 HA     31.989000   34.777000   24.834000 H     4 SER     0.0843 ****
 28 CB     33.512000   33.788000   23.713000 C     4 SER     0.2117 ****
 29 HB2    34.184000   33.636000   24.559000 H     4 SER     0.0352 ****
 30 HB3    33.603000   32.944000   23.027000 H     4 SER     0.0352 ****
 31 OG     33.869000   34.984000   23.048000 O     4 SER    -0.6546 ****
 32 HG     34.756000   34.885000   22.689000 H     4 SER     0.4275 ****
 33 C      31.091000   34.017000   23.041000 C     4 SER     0.5973 ****
 34 O      30.600000   33.020000   22.507000 O     4 SER    -0.5679 ****
 35 N      30.819000   35.256000   22.615000 N     5 NME    -0.4157 ****
 36 H      31.308000   36.015000   23.066000 H     5 NME     0.2719 ****
 37 CH3    29.902000   35.572000   21.522000 C     5 NME    -0.1490 ****
 38 HH31   30.215000   35.050000   20.616000 H     5 NME     0.0976 ****
 39 HH32   28.893000   35.249000   21.784000 H     5 NME     0.0976 ****
 40 HH33   29.898000   36.647000   21.334000 H     5 NME     0.0976 ****
@<TRIPOS>BOND
    1     5     6 1
    2     5     7 1
    3     2     3 1
    4     2     4 1
    5     2     5 1
    6     1     2 1
    7    12    13 1
    8    12    14 1
    9     9    10 1
   10     9    11 1
   11     9    12 1
   12     7     8 1
   13     7     9 1
   14    22    23 1
   15    22    24 1
   16    18    19 1
   17    18    20 1
   18    18    21 1
   19    16    17 1
   20    16    18 1
   21    16    22 1
   22    14    15 1
   23    14    16 1
   24    33    34 1
   25    33    35 1
   26    31    32 1
   27    28    29 1
   28    28    30 1
   29    28    31 1
   30    26    27 1
   31    26    28 1
   32    26    33 1
   33    24    25 1
   34    24    26 1
   35    37    38 1
   36    37    39 1
   37    37    40 1
   38    35    36 1
   39    35    37 1
@<TRIPOS>SUBSTRUCTURE
      1  ACE              1 ****               0 ****  **** 
      2  GLY              7 ****               0 ****  **** 
      3  ALA             14 ****               0 ****  **** 
      4  SER             24 ****               0 ****  **** 
      5  NME             35 ****               0 ****  **** 
