@<TRIPOS>MOLECULE
default_name
   40    39     5     0     1 
SMALL
USER_CHARGES
@<TRIPOS>ATOM
  1 H1     26.799000   27.286000   20.958000 H     1 ACE     0.1123 ****
  2 CH3    27.011000   28.283000   21.342000 C     1 ACE    -0.3662 ****
  3 H2     26.078000   28.793000   21.571000 H     1 ACE     0.1123 ****
  4 H3     27.572000   28.849000   20.601000 H     1 ACE     0.1123 ****
  5 C      27.834000   28.156000   22.603000 C     1 ACE     0.5972 ****
  6 O      28.150000   27.053000   23.026000 O     1 ACE    -0.5679 ****
  7 N      28.184000   29.290000   23.205000 N     2 GLY    -0.4157 ****
  8 H      27.890000   30.169000   22.804000 H     2 GLY     0.2719 ****
  9 CA     28.977000   29.351000   24.434000 C     2 GLY    -0.0252 ****
 10 HA2    28.448000   28.826000   25.230000 H     2 GLY     0.0698 ****
 11 HA3    29.932000   28.851000   24.270000 H     2 GLY     0.0698 ****
 12 C      29.245000   30.789000   24.886000 C     2 GLY     0.5973 ****
 13 O      28.811000   31.741000   24.242000 O     2 GLY    -0.5679 ****
 14 N      29.968000   30.949000   25.997000 N     3 ALA    -0.4157 ****
 15 H      30.312000   30.129000   26.470000 H     3 ALA     0.2719 ****
 16 CA     30.337000   32.251000   26.555000 C     3 ALA     0.0337 ****
 17 HA     29.478000   32.921000   26.485000 H     3 ALA     0.0823 ****
 18 CB     30.663000   32.061000   28.043000 C     3 ALA    -0.1825 ****
 19 HB1    31.507000   31.380000   28.161000 H     3 ALA     0.0603 ****
 20 HB2    30.924000   33.024000   28.484000 H     3 ALA     0.0603 ****
 21 HB3    29.795000   31.657000   28.566000 H     3 ALA     0.0603 ****
 22 C      31.497000   32.894000   25.764000 C     3 ALA     0.5973 ****
 23 O      32.669000   32.678000   26.071000 O     3 ALA    -0.5679 ****
 24 N      31.177000   33.654000   24.714000 N     4 SER    -0.4157 ****
 25 H      30.198000   33.792000   24.492000 H     4 SER     0.2719 ****
 26 CA     32.149000   34.366000   23.874000 C     4 SER    -0.0249 ****
 27 HA     32.941000   34.756000   24.514000 H     4 SER     0.0843 ****
 28 CB     32.776000   33.387000   22.873000 C     4 SER     0.2117 ****
 29 HB2    33.017000   32.448000   23.373000 H     4 SER     0.0352 ****
 30 HB3    32.067000   33.184000   22.069000 H     4 SER     0.0352 ****
 31 OG     33.967000   33.934000   22.337000 O     4 SER    -0.6546 ****
 32 HG     34.701000   33.640000   22.888000 H     4 SER     0.4275 ****
 33 C      31.499000   35.561000   23.155000 C     4 SER     0.5973 ****
 34 O      30.301000   35.798000   23.305000 O     4 SER    -0.5679 ****
 35 N      32.284000   36.321000   22.384000 N     5 NME    -0.4157 ****
 36 H      33.234000   36.001000   22.248000 H     5 NME     0.2719 ****
 37 CH3    31.831000   37.501000   21.650000 C     5 NME    -0.1490 ****
 38 HH31   31.431000   38.239000   22.348000 H     5 NME     0.0976 ****
 39 HH32   32.661000   37.941000   21.095000 H     5 NME     0.0976 ****
 40 HH33   31.041000   37.218000   20.952000 H     5 NME     0.0976 ****
@<TRIPOS>BOND
    1     5     6 1
    2     5     7 1
    3     2     3 1
    4     2     4 1
    5     2     5 1
    6     1     2 1
    7    12    13 1
    8    12    14 1
    9     9    10 1
   10     9    11 1
   11     9    12 1
   12     7     8 1
   13     7     9 1
   14    22    23 1
   15    22    24 1
   16    18    19 1
   17    18    20 1
   18    18    21 1
   19    16    17 1
   20    16    18 1
   21    16    22 1
   22    14    15 1
   23    14    16 1
   24    33    34 1
   25    33    35 1
   26    31    32 1
   27    28    29 1
   28    28    30 1
   29    28    31 1
   30    26    27 1
   31    26    28 1
   32    26    33 1
   33    24    25 1
   34    24    26 1
   35    37    38 1
   36    37    39 1
   37    37    40 1
   38    35    36 1
   39    35    37 1
@<TRIPOS>SUBSTRUCTURE
      1  ACE              1 ****               0 ****  **** 
      2  GLY              7 ****               0 ****  **** 
      3  ALA             14 ****               0 ****  **** 
      4  SER             24 ****               0 ****  **** 
      5  NME             35 ****               0 ****  **** 
