@<TRIPOS>MOLECULE
default_name
   40    39     5     0     1 
SMALL
USER_CHARGES
@<TRIPOS>ATOM
  1 H1     29.577000   29.642000   21.034000 H     1 ACE     0.1123 ****
  2 CH3    28.614000   29.676000   21.544000 C     1 ACE    -0.3662 ****
  3 H2     27.993000   28.853000   21.197000 H     1 ACE     0.1123 ****
  4 H3     28.127000   30.626000   21.333000 H     1 ACE     0.1123 ****
  5 C      28.842000   29.542000   23.031000 C     1 ACE     0.5972 ****
  6 O      29.979000   29.434000   23.469000 O     1 ACE    -0.5679 ****
  7 N      27.760000   29.591000   23.810000 N     2 GLY    -0.4157 ****
  8 H      26.865000   29.692000   23.359000 H     2 GLY     0.2719 ****
  9 CA     27.769000   29.408000   25.275000 C     2 GLY    -0.0252 ****
 10 HA2    26.741000   29.320000   25.626000 H     2 GLY     0.0698 ****
 11 HA3    28.283000   28.473000   25.503000 H     2 GLY     0.0698 ****
 12 C      28.450000   30.514000   26.101000 C     2 GLY     0.5973 ****
 13 O      28.410000   30.456000   27.324000 O     2 GLY    -0.5679 ****
 14 N      29.038000   31.513000   25.436000 N     3 ALA    -0.4157 ****
 15 H      28.944000   31.477000   24.434000 H     3 ALA     0.2719 ****
 16 CA     29.931000   32.562000   25.935000 C     3 ALA     0.0337 ****
 17 HA     29.348000   33.315000   26.467000 H     3 ALA     0.0823 ****
 18 CB     31.005000   31.985000   26.885000 C     3 ALA    -0.1825 ****
 19 HB1    31.503000   31.129000   26.428000 H     3 ALA     0.0603 ****
 20 HB2    31.738000   32.754000   27.132000 H     3 ALA     0.0603 ****
 21 HB3    30.544000   31.664000   27.819000 H     3 ALA     0.0603 ****
 22 C      30.558000   33.222000   24.686000 C     3 ALA     0.5973 ****
 23 O      29.853000   33.917000   23.962000 O     3 ALA    -0.5679 ****
 24 N      31.843000   32.982000   24.391000 N     4 SER    -0.4157 ****
 25 H      32.342000   32.366000   25.015000 H     4 SER     0.2719 ****
 26 CA     32.538000   33.376000   23.148000 C     4 SER    -0.0249 ****
 27 HA     33.577000   33.071000   23.274000 H     4 SER     0.0843 ****
 28 CB     31.996000   32.556000   21.966000 C     4 SER     0.2117 ****
 29 HB2    31.932000   31.504000   22.248000 H     4 SER     0.0352 ****
 30 HB3    31.000000   32.912000   21.699000 H     4 SER     0.0352 ****
 31 OG     32.854000   32.676000   20.852000 O     4 SER    -0.6546 ****
 32 HG     32.993000   33.626000   20.700000 H     4 SER     0.4275 ****
 33 C      32.600000   34.887000   22.822000 C     4 SER     0.5973 ****
 34 O      33.048000   35.255000   21.736000 O     4 SER    -0.5679 ****
 35 N      32.187000   35.768000   23.742000 N     5 NME    -0.4157 ****
 36 H      31.765000   35.399000   24.578000 H     5 NME     0.2719 ****
 37 CH3    32.200000   37.218000   23.559000 C     5 NME    -0.1490 ****
 38 HH31   31.858000   37.717000   24.467000 H     5 NME     0.0976 ****
 39 HH32   33.212000   37.552000   23.322000 H     5 NME     0.0976 ****
 40 HH33   31.541000   37.488000   22.731000 H     5 NME     0.0976 ****
@<TRIPOS>BOND
    1     5     6 1
    2     5     7 1
    3     2     3 1
    4     2     4 1
    5     2     5 1
    6     1     2 1
    7    12    13 1
    8    12    14 1
    9     9    10 1
   10     9    11 1
   11     9    12 1
   12     7     8 1
   13     7     9 1
   14    22    23 1
   15    22    24 1
   16    18    19 1
   17    18    20 1
   18    18    21 1
   19    16    17 1
   20    16    18 1
   21    16    22 1
   22    14    15 1
   23    14    16 1
   24    33    34 1
   25    33    35 1
   26    31    32 1
   27    28    29 1
   28    28    30 1
   29    28    31 1
   30    26    27 1
   31    26    28 1
   32    26    33 1
   33    24    25 1
   34    24    26 1
   35    37    38 1
   36    37    39 1
   37    37    40 1
   38    35    36 1
   39    35    37 1
@<TRIPOS>SUBSTRUCTURE
      1  ACE              1 ****               0 ****  **** 
      2  GLY              7 ****               0 ****  **** 
      3  ALA             14 ****               0 ****  **** 
      4  SER             24 ****               0 ****  **** 
      5  NME             35 ****               0 ****  **** 
