@<TRIPOS>MOLECULE
default_name
   40    39     5     0     1 
SMALL
USER_CHARGES
@<TRIPOS>ATOM
  1 H1     27.508000   25.421000   24.324000 H     1 ACE     0.1123 ****
  2 CH3    27.445000   25.744000   23.287000 C     1 ACE    -0.3662 ****
  3 H2     26.667000   25.181000   22.773000 H     1 ACE     0.1123 ****
  4 H3     28.400000   25.586000   22.789000 H     1 ACE     0.1123 ****
  5 C      27.097000   27.214000   23.242000 C     1 ACE     0.5972 ****
  6 O      26.072000   27.589000   22.687000 O     1 ACE    -0.5679 ****
  7 N      27.951000   28.048000   23.828000 N     2 GLY    -0.4157 ****
  8 H      28.780000   27.676000   24.270000 H     2 GLY     0.2719 ****
  9 CA     27.777000   29.500000   23.875000 C     2 GLY    -0.0252 ****
 10 HA2    27.748000   29.889000   22.858000 H     2 GLY     0.0698 ****
 11 HA3    26.829000   29.733000   24.360000 H     2 GLY     0.0698 ****
 12 C      28.905000   30.202000   24.637000 C     2 GLY     0.5973 ****
 13 O      29.795000   29.536000   25.161000 O     2 GLY    -0.5679 ****
 14 N      28.834000   31.539000   24.683000 N     3 ALA    -0.4157 ****
 15 H      28.053000   31.958000   24.207000 H     3 ALA     0.2719 ****
 16 CA     29.816000   32.465000   25.268000 C     3 ALA     0.0337 ****
 17 HA     29.243000   33.374000   25.452000 H     3 ALA     0.0823 ****
 18 CB     30.309000   32.050000   26.664000 C     3 ALA    -0.1825 ****
 19 HB1    31.018000   31.225000   26.582000 H     3 ALA     0.0603 ****
 20 HB2    30.816000   32.891000   27.138000 H     3 ALA     0.0603 ****
 21 HB3    29.467000   31.745000   27.285000 H     3 ALA     0.0603 ****
 22 C      30.922000   32.896000   24.283000 C     3 ALA     0.5973 ****
 23 O      31.461000   32.086000   23.535000 O     3 ALA    -0.5679 ****
 24 N      31.230000   34.196000   24.248000 N     4 SER    -0.4157 ****
 25 H      30.778000   34.824000   24.899000 H     4 SER     0.2719 ****
 26 CA     32.313000   34.785000   23.448000 C     4 SER    -0.0249 ****
 27 HA     33.185000   34.133000   23.500000 H     4 SER     0.0843 ****
 28 CB     31.885000   34.891000   21.978000 C     4 SER     0.2117 ****
 29 HB2    31.560000   33.910000   21.627000 H     4 SER     0.0352 ****
 30 HB3    31.053000   35.591000   21.888000 H     4 SER     0.0352 ****
 31 OG     32.964000   35.326000   21.171000 O     4 SER    -0.6546 ****
 32 HG     32.727000   35.190000   20.248000 H     4 SER     0.4275 ****
 33 C      32.707000   36.157000   24.019000 C     4 SER     0.5973 ****
 34 O      31.986000   36.702000   24.857000 O     4 SER    -0.5679 ****
 35 N      33.845000   36.708000   23.586000 N     5 NME    -0.4157 ****
 36 H      34.321000   36.230000   22.832000 H     5 NME     0.2719 ****
 37 CH3    34.375000   37.989000   24.047000 C     5 NME    -0.1490 ****
 38 HH31   34.539000   37.953000   25.126000 H     5 NME     0.0976 ****
 39 HH32   35.319000   38.209000   23.546000 H     5 NME     0.0976 ****
 40 HH33   33.658000   38.783000   23.830000 H     5 NME     0.0976 ****
@<TRIPOS>BOND
    1     5     6 1
    2     5     7 1
    3     2     3 1
    4     2     4 1
    5     2     5 1
    6     1     2 1
    7    12    13 1
    8    12    14 1
    9     9    10 1
   10     9    11 1
   11     9    12 1
   12     7     8 1
   13     7     9 1
   14    22    23 1
   15    22    24 1
   16    18    19 1
   17    18    20 1
   18    18    21 1
   19    16    17 1
   20    16    18 1
   21    16    22 1
   22    14    15 1
   23    14    16 1
   24    33    34 1
   25    33    35 1
   26    31    32 1
   27    28    29 1
   28    28    30 1
   29    28    31 1
   30    26    27 1
   31    26    28 1
   32    26    33 1
   33    24    25 1
   34    24    26 1
   35    37    38 1
   36    37    39 1
   37    37    40 1
   38    35    36 1
   39    35    37 1
@<TRIPOS>SUBSTRUCTURE
      1  ACE              1 ****               0 ****  **** 
      2  GLY              7 ****               0 ****  **** 
      3  ALA             14 ****               0 ****  **** 
      4  SER             24 ****               0 ****  **** 
      5  NME             35 ****               0 ****  **** 
