@<TRIPOS>MOLECULE
default_name
   40    39     5     0     1 
SMALL
USER_CHARGES
@<TRIPOS>ATOM
  1 H1     26.602000   32.204000   21.618000 H     1 ACE     0.1123 ****
  2 CH3    27.663000   32.007000   21.759000 C     1 ACE    -0.3662 ****
  3 H2     28.126000   32.846000   22.274000 H     1 ACE     0.1123 ****
  4 H3     28.141000   31.853000   20.793000 H     1 ACE     0.1123 ****
  5 C      27.822000   30.765000   22.603000 C     1 ACE     0.5972 ****
  6 O      26.844000   30.249000   23.124000 O     1 ACE    -0.5679 ****
  7 N      29.061000   30.298000   22.754000 N     2 GLY    -0.4157 ****
  8 H      29.814000   30.840000   22.348000 H     2 GLY     0.2719 ****
  9 CA     29.410000   29.153000   23.614000 C     2 GLY    -0.0252 ****
 10 HA2    28.568000   28.461000   23.660000 H     2 GLY     0.0698 ****
 11 HA3    30.257000   28.626000   23.174000 H     2 GLY     0.0698 ****
 12 C      29.788000   29.532000   25.054000 C     2 GLY     0.5973 ****
 13 O      30.156000   28.658000   25.830000 O     2 GLY    -0.5679 ****
 14 N      29.739000   30.833000   25.361000 N     3 ALA    -0.4157 ****
 15 H      29.387000   31.418000   24.617000 H     3 ALA     0.2719 ****
 16 CA     30.170000   31.563000   26.562000 C     3 ALA     0.0337 ****
 17 HA     29.330000   31.658000   27.251000 H     3 ALA     0.0823 ****
 18 CB     31.355000   30.901000   27.294000 C     3 ALA    -0.1825 ****
 19 HB1    32.147000   30.631000   26.594000 H     3 ALA     0.0603 ****
 20 HB2    31.751000   31.583000   28.047000 H     3 ALA     0.0603 ****
 21 HB3    31.013000   29.999000   27.805000 H     3 ALA     0.0603 ****
 22 C      30.549000   32.971000   26.070000 C     3 ALA     0.5973 ****
 23 O      29.764000   33.906000   26.187000 O     3 ALA    -0.5679 ****
 24 N      31.711000   33.093000   25.419000 N     4 SER    -0.4157 ****
 25 H      32.276000   32.262000   25.350000 H     4 SER     0.2719 ****
 26 CA     31.945000   34.152000   24.430000 C     4 SER    -0.0249 ****
 27 HA     31.567000   35.095000   24.830000 H     4 SER     0.0843 ****
 28 CB     33.448000   34.318000   24.189000 C     4 SER     0.2117 ****
 29 HB2    33.949000   34.470000   25.146000 H     4 SER     0.0352 ****
 30 HB3    33.844000   33.417000   23.718000 H     4 SER     0.0352 ****
 31 OG     33.693000   35.436000   23.358000 O     4 SER    -0.6546 ****
 32 HG     34.644000   35.557000   23.270000 H     4 SER     0.4275 ****
 33 C      31.188000   33.856000   23.120000 C     4 SER     0.5973 ****
 34 O      30.811000   32.708000   22.857000 O     4 SER    -0.5679 ****
 35 N      30.969000   34.885000   22.294000 N     5 NME    -0.4157 ****
 36 H      31.378000   35.771000   22.556000 H     5 NME     0.2719 ****
 37 CH3    30.256000   34.803000   21.020000 C     5 NME    -0.1490 ****
 38 HH31   30.513000   33.876000   20.505000 H     5 NME     0.0976 ****
 39 HH32   29.179000   34.824000   21.198000 H     5 NME     0.0976 ****
 40 HH33   30.529000   35.648000   20.386000 H     5 NME     0.0976 ****
@<TRIPOS>BOND
    1     5     6 1
    2     5     7 1
    3     2     3 1
    4     2     4 1
    5     2     5 1
    6     1     2 1
    7    12    13 1
    8    12    14 1
    9     9    10 1
   10     9    11 1
   11     9    12 1
   12     7     8 1
   13     7     9 1
   14    22    23 1
   15    22    24 1
   16    18    19 1
   17    18    20 1
   18    18    21 1
   19    16    17 1
   20    16    18 1
   21    16    22 1
   22    14    15 1
   23    14    16 1
   24    33    34 1
   25    33    35 1
   26    31    32 1
   27    28    29 1
   28    28    30 1
   29    28    31 1
   30    26    27 1
   31    26    28 1
   32    26    33 1
   33    24    25 1
   34    24    26 1
   35    37    38 1
   36    37    39 1
   37    37    40 1
   38    35    36 1
   39    35    37 1
@<TRIPOS>SUBSTRUCTURE
      1  ACE              1 ****               0 ****  **** 
      2  GLY              7 ****               0 ****  **** 
      3  ALA             14 ****               0 ****  **** 
      4  SER             24 ****               0 ****  **** 
      5  NME             35 ****               0 ****  **** 
