@<TRIPOS>MOLECULE
default_name
   40    39     5     0     1 
SMALL
USER_CHARGES
@<TRIPOS>ATOM
  1 H1     25.287000   29.099000   23.069000 H     1 ACE     0.1123 ****
  2 CH3    26.237000   29.115000   22.535000 C     1 ACE    -0.3662 ****
  3 H2     26.375000   30.089000   22.068000 H     1 ACE     0.1123 ****
  4 H3     26.237000   28.334000   21.777000 H     1 ACE     0.1123 ****
  5 C      27.355000   28.860000   23.518000 C     1 ACE     0.5972 ****
  6 O      27.104000   28.681000   24.700000 O     1 ACE    -0.5679 ****
  7 N      28.594000   28.867000   23.027000 N     2 GLY    -0.4157 ****
  8 H      28.703000   29.025000   22.038000 H     2 GLY     0.2719 ****
  9 CA     29.808000   28.569000   23.804000 C     2 GLY    -0.0252 ****
 10 HA2    29.582000   27.771000   24.514000 H     2 GLY     0.0698 ****
 11 HA3    30.580000   28.201000   23.129000 H     2 GLY     0.0698 ****
 12 C      30.404000   29.736000   24.608000 C     2 GLY     0.5973 ****
 13 O      31.605000   29.727000   24.839000 O     2 GLY    -0.5679 ****
 14 N      29.598000   30.745000   24.962000 N     3 ALA    -0.4157 ****
 15 H      28.625000   30.628000   24.738000 H     3 ALA     0.2719 ****
 16 CA     29.934000   31.931000   25.763000 C     3 ALA     0.0337 ****
 17 HA     29.127000   32.652000   25.629000 H     3 ALA     0.0823 ****
 18 CB     29.923000   31.529000   27.246000 C     3 ALA    -0.1825 ****
 19 HB1    30.710000   30.798000   27.438000 H     3 ALA     0.0603 ****
 20 HB2    30.102000   32.408000   27.865000 H     3 ALA     0.0603 ****
 21 HB3    28.958000   31.096000   27.510000 H     3 ALA     0.0603 ****
 22 C      31.240000   32.649000   25.345000 C     3 ALA     0.5973 ****
 23 O      32.311000   32.444000   25.911000 O     3 ALA    -0.5679 ****
 24 N      31.120000   33.596000   24.411000 N     4 SER    -0.4157 ****
 25 H      30.211000   33.777000   24.010000 H     4 SER     0.2719 ****
 26 CA     32.208000   34.471000   23.953000 C     4 SER    -0.0249 ****
 27 HA     32.760000   34.832000   24.822000 H     4 SER     0.0843 ****
 28 CB     33.179000   33.676000   23.069000 C     4 SER     0.2117 ****
 29 HB2    33.516000   32.791000   23.612000 H     4 SER     0.0352 ****
 30 HB3    32.668000   33.356000   22.160000 H     4 SER     0.0352 ****
 31 OG     34.310000   34.457000   22.732000 O     4 SER    -0.6546 ****
 32 HG     35.009000   33.861000   22.446000 H     4 SER     0.4275 ****
 33 C      31.635000   35.687000   23.208000 C     4 SER     0.5973 ****
 34 O      30.447000   35.705000   22.882000 O     4 SER    -0.5679 ****
 35 N      32.464000   36.704000   22.949000 N     5 NME    -0.4157 ****
 36 H      33.440000   36.557000   23.170000 H     5 NME     0.2719 ****
 37 CH3    32.076000   37.941000   22.275000 C     5 NME    -0.1490 ****
 38 HH31   31.281000   38.433000   22.838000 H     5 NME     0.0976 ****
 39 HH32   32.933000   38.612000   22.198000 H     5 NME     0.0976 ****
 40 HH33   31.705000   37.713000   21.274000 H     5 NME     0.0976 ****
@<TRIPOS>BOND
    1     5     6 1
    2     5     7 1
    3     2     3 1
    4     2     4 1
    5     2     5 1
    6     1     2 1
    7    12    13 1
    8    12    14 1
    9     9    10 1
   10     9    11 1
   11     9    12 1
   12     7     8 1
   13     7     9 1
   14    22    23 1
   15    22    24 1
   16    18    19 1
   17    18    20 1
   18    18    21 1
   19    16    17 1
   20    16    18 1
   21    16    22 1
   22    14    15 1
   23    14    16 1
   24    33    34 1
   25    33    35 1
   26    31    32 1
   27    28    29 1
   28    28    30 1
   29    28    31 1
   30    26    27 1
   31    26    28 1
   32    26    33 1
   33    24    25 1
   34    24    26 1
   35    37    38 1
   36    37    39 1
   37    37    40 1
   38    35    36 1
   39    35    37 1
@<TRIPOS>SUBSTRUCTURE
      1  ACE              1 ****               0 ****  **** 
      2  GLY              7 ****               0 ****  **** 
      3  ALA             14 ****               0 ****  **** 
      4  SER             24 ****               0 ****  **** 
      5  NME             35 ****               0 ****  **** 
