@<TRIPOS>MOLECULE
default_name
   40    39     5     0     1 
SMALL
USER_CHARGES
@<TRIPOS>ATOM
  1 H1     26.999000   25.077000   22.628000 H     1 ACE     0.1123 ****
  2 CH3    27.037000   26.154000   22.472000 C     1 ACE    -0.3662 ****
  3 H2     26.026000   26.556000   22.444000 H     1 ACE     0.1123 ****
  4 H3     27.549000   26.370000   21.536000 H     1 ACE     0.1123 ****
  5 C      27.795000   26.788000   23.614000 C     1 ACE     0.5972 ****
  6 O      28.247000   26.094000   24.515000 O     1 ACE    -0.5679 ****
  7 N      27.933000   28.111000   23.578000 N     2 GLY    -0.4157 ****
  8 H      27.532000   28.627000   22.808000 H     2 GLY     0.2719 ****
  9 CA     28.642000   28.890000   24.594000 C     2 GLY    -0.0252 ****
 10 HA2    28.206000   28.688000   25.573000 H     2 GLY     0.0698 ****
 11 HA3    29.688000   28.584000   24.615000 H     2 GLY     0.0698 ****
 12 C      28.578000   30.395000   24.327000 C     2 GLY     0.5973 ****
 13 O      27.974000   30.833000   23.348000 O     2 GLY    -0.5679 ****
 14 N      29.190000   31.188000   25.211000 N     3 ALA    -0.4157 ****
 15 H      29.682000   30.760000   25.976000 H     3 ALA     0.2719 ****
 16 CA     29.362000   32.629000   25.009000 C     3 ALA     0.0337 ****
 17 HA     28.503000   33.027000   24.466000 H     3 ALA     0.0823 ****
 18 CB     29.390000   33.277000   26.404000 C     3 ALA    -0.1825 ****
 19 HB1    30.274000   32.950000   26.953000 H     3 ALA     0.0603 ****
 20 HB2    29.405000   34.364000   26.317000 H     3 ALA     0.0603 ****
 21 HB3    28.495000   32.993000   26.961000 H     3 ALA     0.0603 ****
 22 C      30.629000   32.943000   24.175000 C     3 ALA     0.5973 ****
 23 O      31.242000   32.055000   23.584000 O     3 ALA    -0.5679 ****
 24 N      31.068000   34.205000   24.169000 N     4 SER    -0.4157 ****
 25 H      30.574000   34.897000   24.716000 H     4 SER     0.2719 ****
 26 CA     32.314000   34.655000   23.534000 C     4 SER    -0.0249 ****
 27 HA     33.092000   33.916000   23.728000 H     4 SER     0.0843 ****
 28 CB     32.117000   34.764000   22.016000 C     4 SER     0.2117 ****
 29 HB2    31.581000   33.888000   21.646000 H     4 SER     0.0352 ****
 30 HB3    31.533000   35.656000   21.787000 H     4 SER     0.0352 ****
 31 OG     33.374000   34.833000   21.368000 O     4 SER    -0.6546 ****
 32 HG     33.607000   33.943000   21.081000 H     4 SER     0.4275 ****
 33 C      32.775000   35.995000   24.132000 C     4 SER     0.5973 ****
 34 O      32.081000   36.561000   24.978000 O     4 SER    -0.5679 ****
 35 N      33.938000   36.499000   23.707000 N     5 NME    -0.4157 ****
 36 H      34.392000   36.012000   22.945000 H     5 NME     0.2719 ****
 37 CH3    34.525000   37.748000   24.187000 C     5 NME    -0.1490 ****
 38 HH31   34.689000   37.688000   25.265000 H     5 NME     0.0976 ****
 39 HH32   35.477000   37.933000   23.687000 H     5 NME     0.0976 ****
 40 HH33   33.844000   38.576000   23.984000 H     5 NME     0.0976 ****
@<TRIPOS>BOND
    1     5     6 1
    2     5     7 1
    3     2     3 1
    4     2     4 1
    5     2     5 1
    6     1     2 1
    7    12    13 1
    8    12    14 1
    9     9    10 1
   10     9    11 1
   11     9    12 1
   12     7     8 1
   13     7     9 1
   14    22    23 1
   15    22    24 1
   16    18    19 1
   17    18    20 1
   18    18    21 1
   19    16    17 1
   20    16    18 1
   21    16    22 1
   22    14    15 1
   23    14    16 1
   24    33    34 1
   25    33    35 1
   26    31    32 1
   27    28    29 1
   28    28    30 1
   29    28    31 1
   30    26    27 1
   31    26    28 1
   32    26    33 1
   33    24    25 1
   34    24    26 1
   35    37    38 1
   36    37    39 1
   37    37    40 1
   38    35    36 1
   39    35    37 1
@<TRIPOS>SUBSTRUCTURE
      1  ACE              1 ****               0 ****  **** 
      2  GLY              7 ****               0 ****  **** 
      3  ALA             14 ****               0 ****  **** 
      4  SER             24 ****               0 ****  **** 
      5  NME             35 ****               0 ****  **** 
