@<TRIPOS>MOLECULE
default_name
   40    39     5     0     1 
SMALL
USER_CHARGES
@<TRIPOS>ATOM
  1 H1     25.996000   32.008000   23.133000 H     1 ACE     0.1123 ****
  2 CH3    26.997000   31.931000   22.710000 C     1 ACE    -0.3662 ****
  3 H2     27.582000   32.806000   22.986000 H     1 ACE     0.1123 ****
  4 H3     26.933000   31.858000   21.626000 H     1 ACE     0.1123 ****
  5 C      27.669000   30.693000   23.254000 C     1 ACE     0.5972 ****
  6 O      27.081000   29.969000   24.046000 O     1 ACE    -0.5679 ****
  7 N      28.917000   30.468000   22.853000 N     2 GLY    -0.4157 ****
  8 H      29.358000   31.193000   22.297000 H     2 GLY     0.2719 ****
  9 CA     29.775000   29.379000   23.342000 C     2 GLY    -0.0252 ****
 10 HA2    29.158000   28.533000   23.648000 H     2 GLY     0.0698 ****
 11 HA3    30.434000   29.051000   22.538000 H     2 GLY     0.0698 ****
 12 C      30.638000   29.802000   24.535000 C     2 GLY     0.5973 ****
 13 O      31.835000   29.528000   24.537000 O     2 GLY    -0.5679 ****
 14 N      30.056000   30.580000   25.456000 N     3 ALA    -0.4157 ****
 15 H      29.062000   30.712000   25.346000 H     3 ALA     0.2719 ****
 16 CA     30.694000   31.393000   26.501000 C     3 ALA     0.0337 ****
 17 HA     29.909000   31.585000   27.234000 H     3 ALA     0.0823 ****
 18 CB     31.794000   30.658000   27.286000 C     3 ALA    -0.1825 ****
 19 HB1    32.689000   30.537000   26.677000 H     3 ALA     0.0603 ****
 20 HB2    32.055000   31.240000   28.170000 H     3 ALA     0.0603 ****
 21 HB3    31.434000   29.678000   27.600000 H     3 ALA     0.0603 ****
 22 C      31.061000   32.782000   25.956000 C     3 ALA     0.5973 ****
 23 O      30.510000   33.790000   26.391000 O     3 ALA    -0.5679 ****
 24 N      31.936000   32.824000   24.947000 N     4 SER    -0.4157 ****
 25 H      32.332000   31.948000   24.645000 H     4 SER     0.2719 ****
 26 CA     32.070000   33.976000   24.048000 C     4 SER    -0.0249 ****
 27 HA     32.032000   34.889000   24.644000 H     4 SER     0.0843 ****
 28 CB     33.428000   33.934000   23.345000 C     4 SER     0.2117 ****
 29 HB2    34.218000   33.852000   24.094000 H     4 SER     0.0352 ****
 30 HB3    33.470000   33.065000   22.686000 H     4 SER     0.0352 ****
 31 OG     33.625000   35.114000   22.592000 O     4 SER    -0.6546 ****
 32 HG     34.484000   35.067000   22.162000 H     4 SER     0.4275 ****
 33 C      30.921000   34.025000   23.024000 C     4 SER     0.5973 ****
 34 O      30.368000   32.988000   22.648000 O     4 SER    -0.5679 ****
 35 N      30.569000   35.228000   22.558000 N     5 NME    -0.4157 ****
 36 H      31.117000   36.018000   22.867000 H     5 NME     0.2719 ****
 37 CH3    29.493000   35.463000   21.597000 C     5 NME    -0.1490 ****
 38 HH31   28.535000   35.191000   22.044000 H     5 NME     0.0976 ****
 39 HH32   29.470000   36.515000   21.310000 H     5 NME     0.0976 ****
 40 HH33   29.654000   34.852000   20.707000 H     5 NME     0.0976 ****
@<TRIPOS>BOND
    1     5     6 1
    2     5     7 1
    3     2     3 1
    4     2     4 1
    5     2     5 1
    6     1     2 1
    7    12    13 1
    8    12    14 1
    9     9    10 1
   10     9    11 1
   11     9    12 1
   12     7     8 1
   13     7     9 1
   14    22    23 1
   15    22    24 1
   16    18    19 1
   17    18    20 1
   18    18    21 1
   19    16    17 1
   20    16    18 1
   21    16    22 1
   22    14    15 1
   23    14    16 1
   24    33    34 1
   25    33    35 1
   26    31    32 1
   27    28    29 1
   28    28    30 1
   29    28    31 1
   30    26    27 1
   31    26    28 1
   32    26    33 1
   33    24    25 1
   34    24    26 1
   35    37    38 1
   36    37    39 1
   37    37    40 1
   38    35    36 1
   39    35    37 1
@<TRIPOS>SUBSTRUCTURE
      1  ACE              1 ****               0 ****  **** 
      2  GLY              7 ****               0 ****  **** 
      3  ALA             14 ****               0 ****  **** 
      4  SER             24 ****               0 ****  **** 
      5  NME             35 ****               0 ****  **** 
