@<TRIPOS>MOLECULE
default_name
   40    39     5     0     1 
SMALL
USER_CHARGES
@<TRIPOS>ATOM
  1 H1     25.894000   27.548000   24.867000 H     1 ACE     0.1123 ****
  2 CH3    26.509000   27.588000   23.969000 C     1 ACE    -0.3662 ****
  3 H2     25.997000   28.169000   23.204000 H     1 ACE     0.1123 ****
  4 H3     26.694000   26.578000   23.609000 H     1 ACE     0.1123 ****
  5 C      27.824000   28.250000   24.306000 C     1 ACE     0.5972 ****
  6 O      28.046000   28.640000   25.445000 O     1 ACE    -0.5679 ****
  7 N      28.702000   28.381000   23.312000 N     2 GLY    -0.4157 ****
  8 H      28.436000   28.057000   22.395000 H     2 GLY     0.2719 ****
  9 CA     30.001000   29.045000   23.457000 C     2 GLY    -0.0252 ****
 10 HA2    30.474000   28.726000   24.386000 H     2 GLY     0.0698 ****
 11 HA3    30.646000   28.757000   22.628000 H     2 GLY     0.0698 ****
 12 C      29.875000   30.570000   23.455000 C     2 GLY     0.5973 ****
 13 O      29.952000   31.182000   22.397000 O     2 GLY    -0.5679 ****
 14 N      29.697000   31.175000   24.635000 N     3 ALA    -0.4157 ****
 15 H      29.589000   30.578000   25.442000 H     3 ALA     0.2719 ****
 16 CA     29.477000   32.613000   24.846000 C     3 ALA     0.0337 ****
 17 HA     28.455000   32.837000   24.536000 H     3 ALA     0.0823 ****
 18 CB     29.582000   32.897000   26.350000 C     3 ALA    -0.1825 ****
 19 HB1    30.587000   32.673000   26.710000 H     3 ALA     0.0603 ****
 20 HB2    29.360000   33.948000   26.538000 H     3 ALA     0.0603 ****
 21 HB3    28.860000   32.286000   26.894000 H     3 ALA     0.0603 ****
 22 C      30.389000   33.551000   24.027000 C     3 ALA     0.5973 ****
 23 O      29.921000   34.554000   23.498000 O     3 ALA    -0.5679 ****
 24 N      31.695000   33.258000   23.976000 N     4 SER    -0.4157 ****
 25 H      31.982000   32.406000   24.430000 H     4 SER     0.2719 ****
 26 CA     32.714000   33.959000   23.168000 C     4 SER    -0.0249 ****
 27 HA     33.665000   33.486000   23.408000 H     4 SER     0.0843 ****
 28 CB     32.474000   33.687000   21.674000 C     4 SER     0.2117 ****
 29 HB2    32.271000   32.626000   21.521000 H     4 SER     0.0352 ****
 30 HB3    31.614000   34.265000   21.328000 H     4 SER     0.0352 ****
 31 OG     33.621000   34.045000   20.932000 O     4 SER    -0.6546 ****
 32 HG     33.827000   34.966000   21.159000 H     4 SER     0.4275 ****
 33 C      32.932000   35.463000   23.454000 C     4 SER     0.5973 ****
 34 O      33.680000   36.116000   22.727000 O     4 SER    -0.5679 ****
 35 N      32.327000   36.019000   24.512000 N     5 NME    -0.4157 ****
 36 H      31.675000   35.448000   25.024000 H     5 NME     0.2719 ****
 37 CH3    32.453000   37.425000   24.887000 C     5 NME    -0.1490 ****
 38 HH31   31.903000   37.621000   25.809000 H     5 NME     0.0976 ****
 39 HH32   33.505000   37.677000   25.032000 H     5 NME     0.0976 ****
 40 HH33   32.051000   38.053000   24.090000 H     5 NME     0.0976 ****
@<TRIPOS>BOND
    1     5     6 1
    2     5     7 1
    3     2     3 1
    4     2     4 1
    5     2     5 1
    6     1     2 1
    7    12    13 1
    8    12    14 1
    9     9    10 1
   10     9    11 1
   11     9    12 1
   12     7     8 1
   13     7     9 1
   14    22    23 1
   15    22    24 1
   16    18    19 1
   17    18    20 1
   18    18    21 1
   19    16    17 1
   20    16    18 1
   21    16    22 1
   22    14    15 1
   23    14    16 1
   24    33    34 1
   25    33    35 1
   26    31    32 1
   27    28    29 1
   28    28    30 1
   29    28    31 1
   30    26    27 1
   31    26    28 1
   32    26    33 1
   33    24    25 1
   34    24    26 1
   35    37    38 1
   36    37    39 1
   37    37    40 1
   38    35    36 1
   39    35    37 1
@<TRIPOS>SUBSTRUCTURE
      1  ACE              1 ****               0 ****  **** 
      2  GLY              7 ****               0 ****  **** 
      3  ALA             14 ****               0 ****  **** 
      4  SER             24 ****               0 ****  **** 
      5  NME             35 ****               0 ****  **** 
