@<TRIPOS>MOLECULE
default_name
   40    39     5     0     1 
SMALL
USER_CHARGES
@<TRIPOS>ATOM
  1 H1     26.678000   32.649000   22.019000 H     1 ACE     0.1123 ****
  2 CH3    27.534000   32.034000   21.745000 C     1 ACE    -0.3662 ****
  3 H2     28.413000   32.664000   21.632000 H     1 ACE     0.1123 ****
  4 H3     27.326000   31.515000   20.812000 H     1 ACE     0.1123 ****
  5 C      27.775000   31.021000   22.839000 C     1 ACE     0.5972 ****
  6 O      27.076000   31.022000   23.842000 O     1 ACE    -0.5679 ****
  7 N      28.757000   30.141000   22.643000 N     2 GLY    -0.4157 ****
  8 H      29.311000   30.234000   21.807000 H     2 GLY     0.2719 ****
  9 CA     29.011000   28.990000   23.527000 C     2 GLY    -0.0252 ****
 10 HA2    28.062000   28.499000   23.745000 H     2 GLY     0.0698 ****
 11 HA3    29.644000   28.277000   23.001000 H     2 GLY     0.0698 ****
 12 C      29.681000   29.303000   24.873000 C     2 GLY     0.5973 ****
 13 O      29.825000   28.397000   25.687000 O     2 GLY    -0.5679 ****
 14 N      30.100000   30.554000   25.093000 N     3 ALA    -0.4157 ****
 15 H      29.873000   31.227000   24.374000 H     3 ALA     0.2719 ****
 16 CA     30.687000   31.088000   26.331000 C     3 ALA     0.0337 ****
 17 HA     29.963000   31.009000   27.144000 H     3 ALA     0.0823 ****
 18 CB     31.972000   30.328000   26.716000 C     3 ALA    -0.1825 ****
 19 HB1    32.659000   30.274000   25.871000 H     3 ALA     0.0603 ****
 20 HB2    32.461000   30.837000   27.547000 H     3 ALA     0.0603 ****
 21 HB3    31.728000   29.316000   27.038000 H     3 ALA     0.0603 ****
 22 C      31.015000   32.575000   26.118000 C     3 ALA     0.5973 ****
 23 O      30.444000   33.449000   26.761000 O     3 ALA    -0.5679 ****
 24 N      31.899000   32.852000   25.156000 N     4 SER    -0.4157 ****
 25 H      32.289000   32.063000   24.666000 H     4 SER     0.2719 ****
 26 CA     31.993000   34.155000   24.491000 C     4 SER    -0.0249 ****
 27 HA     31.677000   34.935000   25.185000 H     4 SER     0.0843 ****
 28 CB     33.448000   34.435000   24.109000 C     4 SER     0.2117 ****
 29 HB2    34.075000   34.337000   24.997000 H     4 SER     0.0352 ****
 30 HB3    33.777000   33.710000   23.361000 H     4 SER     0.0352 ****
 31 OG     33.577000   35.745000   23.593000 O     4 SER    -0.6546 ****
 32 HG     34.510000   35.933000   23.453000 H     4 SER     0.4275 ****
 33 C      31.057000   34.191000   23.271000 C     4 SER     0.5973 ****
 34 O      30.649000   33.137000   22.774000 O     4 SER    -0.5679 ****
 35 N      30.720000   35.392000   22.787000 N     5 NME    -0.4157 ****
 36 H      31.168000   36.193000   23.210000 H     5 NME     0.2719 ****
 37 CH3    29.806000   35.619000   21.669000 C     5 NME    -0.1490 ****
 38 HH31   28.785000   35.381000   21.973000 H     5 NME     0.0976 ****
 39 HH32   29.852000   36.662000   21.355000 H     5 NME     0.0976 ****
 40 HH33   30.081000   34.980000   20.827000 H     5 NME     0.0976 ****
@<TRIPOS>BOND
    1     5     6 1
    2     5     7 1
    3     2     3 1
    4     2     4 1
    5     2     5 1
    6     1     2 1
    7    12    13 1
    8    12    14 1
    9     9    10 1
   10     9    11 1
   11     9    12 1
   12     7     8 1
   13     7     9 1
   14    22    23 1
   15    22    24 1
   16    18    19 1
   17    18    20 1
   18    18    21 1
   19    16    17 1
   20    16    18 1
   21    16    22 1
   22    14    15 1
   23    14    16 1
   24    33    34 1
   25    33    35 1
   26    31    32 1
   27    28    29 1
   28    28    30 1
   29    28    31 1
   30    26    27 1
   31    26    28 1
   32    26    33 1
   33    24    25 1
   34    24    26 1
   35    37    38 1
   36    37    39 1
   37    37    40 1
   38    35    36 1
   39    35    37 1
@<TRIPOS>SUBSTRUCTURE
      1  ACE              1 ****               0 ****  **** 
      2  GLY              7 ****               0 ****  **** 
      3  ALA             14 ****               0 ****  **** 
      4  SER             24 ****               0 ****  **** 
      5  NME             35 ****               0 ****  **** 
