@<TRIPOS>MOLECULE
default_name
   40    39     5     0     1 
SMALL
USER_CHARGES
@<TRIPOS>ATOM
  1 H1     24.470000   30.692000   24.689000 H     1 ACE     0.1123 ****
  2 CH3    25.007000   30.804000   23.747000 C     1 ACE    -0.3662 ****
  3 H2     25.087000   31.861000   23.499000 H     1 ACE     0.1123 ****
  4 H3     24.474000   30.275000   22.959000 H     1 ACE     0.1123 ****
  5 C      26.391000   30.219000   23.899000 C     1 ACE     0.5972 ****
  6 O      26.741000   29.731000   24.966000 O     1 ACE    -0.5679 ****
  7 N      27.183000   30.268000   22.830000 N     2 GLY    -0.4157 ****
  8 H      26.829000   30.708000   21.996000 H     2 GLY     0.2719 ****
  9 CA     28.576000   29.808000   22.827000 C     2 GLY    -0.0252 ****
 10 HA2    28.655000   28.868000   23.374000 H     2 GLY     0.0698 ****
 11 HA3    28.895000   29.633000   21.799000 H     2 GLY     0.0698 ****
 12 C      29.522000   30.835000   23.453000 C     2 GLY     0.5973 ****
 13 O      30.094000   31.639000   22.727000 O     2 GLY    -0.5679 ****
 14 N      29.703000   30.762000   24.777000 N     3 ALA    -0.4157 ****
 15 H      29.183000   30.033000   25.242000 H     3 ALA     0.2719 ****
 16 CA     30.332000   31.742000   25.676000 C     3 ALA     0.0337 ****
 17 HA     29.550000   32.069000   26.363000 H     3 ALA     0.0823 ****
 18 CB     31.375000   31.002000   26.532000 C     3 ALA    -0.1825 ****
 19 HB1    32.164000   30.592000   25.899000 H     3 ALA     0.0603 ****
 20 HB2    31.809000   31.686000   27.263000 H     3 ALA     0.0603 ****
 21 HB3    30.895000   30.183000   27.070000 H     3 ALA     0.0603 ****
 22 C      30.859000   33.054000   25.037000 C     3 ALA     0.5973 ****
 23 O      30.072000   33.961000   24.780000 O     3 ALA    -0.5679 ****
 24 N      32.180000   33.205000   24.881000 N     4 SER    -0.4157 ****
 25 H      32.761000   32.410000   25.090000 H     4 SER     0.2719 ****
 26 CA     32.854000   34.455000   24.478000 C     4 SER    -0.0249 ****
 27 HA     32.228000   35.289000   24.799000 H     4 SER     0.0843 ****
 28 CB     34.180000   34.580000   25.244000 C     4 SER     0.2117 ****
 29 HB2    33.992000   34.470000   26.313000 H     4 SER     0.0352 ****
 30 HB3    34.863000   33.793000   24.921000 H     4 SER     0.0352 ****
 31 OG     34.776000   35.838000   25.016000 O     4 SER    -0.6546 ****
 32 HG     34.903000   35.912000   24.056000 H     4 SER     0.4275 ****
 33 C      33.033000   34.619000   22.951000 C     4 SER     0.5973 ****
 34 O      34.075000   35.093000   22.494000 O     4 SER    -0.5679 ****
 35 N      32.049000   34.196000   22.151000 N     5 NME    -0.4157 ****
 36 H      31.213000   33.836000   22.585000 H     5 NME     0.2719 ****
 37 CH3    32.088000   34.241000   20.691000 C     5 NME    -0.1490 ****
 38 HH31   33.006000   33.774000   20.331000 H     5 NME     0.0976 ****
 39 HH32   31.228000   33.708000   20.282000 H     5 NME     0.0976 ****
 40 HH33   32.064000   35.279000   20.354000 H     5 NME     0.0976 ****
@<TRIPOS>BOND
    1     5     6 1
    2     5     7 1
    3     2     3 1
    4     2     4 1
    5     2     5 1
    6     1     2 1
    7    12    13 1
    8    12    14 1
    9     9    10 1
   10     9    11 1
   11     9    12 1
   12     7     8 1
   13     7     9 1
   14    22    23 1
   15    22    24 1
   16    18    19 1
   17    18    20 1
   18    18    21 1
   19    16    17 1
   20    16    18 1
   21    16    22 1
   22    14    15 1
   23    14    16 1
   24    33    34 1
   25    33    35 1
   26    31    32 1
   27    28    29 1
   28    28    30 1
   29    28    31 1
   30    26    27 1
   31    26    28 1
   32    26    33 1
   33    24    25 1
   34    24    26 1
   35    37    38 1
   36    37    39 1
   37    37    40 1
   38    35    36 1
   39    35    37 1
@<TRIPOS>SUBSTRUCTURE
      1  ACE              1 ****               0 ****  **** 
      2  GLY              7 ****               0 ****  **** 
      3  ALA             14 ****               0 ****  **** 
      4  SER             24 ****               0 ****  **** 
      5  NME             35 ****               0 ****  **** 
