@<TRIPOS>MOLECULE
default_name
   40    39     5     0     1 
SMALL
USER_CHARGES
@<TRIPOS>ATOM
  1 H1     27.181000   32.338000   21.790000 H     1 ACE     0.1123 ****
  2 CH3    27.923000   31.582000   21.533000 C     1 ACE    -0.3662 ****
  3 H2     28.817000   32.080000   21.162000 H     1 ACE     0.1123 ****
  4 H3     27.522000   30.913000   20.776000 H     1 ACE     0.1123 ****
  5 C      28.267000   30.796000   22.775000 C     1 ACE     0.5972 ****
  6 O      27.677000   31.009000   23.827000 O     1 ACE    -0.5679 ****
  7 N      29.226000   29.878000   22.659000 N     2 GLY    -0.4157 ****
  8 H      29.681000   29.778000   21.767000 H     2 GLY     0.2719 ****
  9 CA     29.716000   29.067000   23.781000 C     2 GLY    -0.0252 ****
 10 HA2    28.871000   28.630000   24.315000 H     2 GLY     0.0698 ****
 11 HA3    30.339000   28.258000   23.400000 H     2 GLY     0.0698 ****
 12 C      30.553000   29.899000   24.754000 C     2 GLY     0.5973 ****
 13 O      31.751000   30.056000   24.538000 O     2 GLY    -0.5679 ****
 14 N      29.906000   30.454000   25.785000 N     3 ALA    -0.4157 ****
 15 H      28.914000   30.277000   25.846000 H     3 ALA     0.2719 ****
 16 CA     30.457000   31.425000   26.741000 C     3 ALA     0.0337 ****
 17 HA     29.614000   31.943000   27.199000 H     3 ALA     0.0823 ****
 18 CB     31.186000   30.658000   27.856000 C     3 ALA    -0.1825 ****
 19 HB1    32.056000   30.145000   27.443000 H     3 ALA     0.0603 ****
 20 HB2    31.521000   31.356000   28.624000 H     3 ALA     0.0603 ****
 21 HB3    30.515000   29.928000   28.309000 H     3 ALA     0.0603 ****
 22 C      31.320000   32.524000   26.074000 C     3 ALA     0.5973 ****
 23 O      32.387000   32.888000   26.565000 O     3 ALA    -0.5679 ****
 24 N      30.839000   33.071000   24.952000 N     4 SER    -0.4157 ****
 25 H      29.939000   32.760000   24.610000 H     4 SER     0.2719 ****
 26 CA     31.565000   34.030000   24.112000 C     4 SER    -0.0249 ****
 27 HA     31.997000   34.803000   24.747000 H     4 SER     0.0843 ****
 28 CB     32.707000   33.306000   23.385000 C     4 SER     0.2117 ****
 29 HB2    33.341000   32.805000   24.117000 H     4 SER     0.0352 ****
 30 HB3    32.292000   32.554000   22.711000 H     4 SER     0.0352 ****
 31 OG     33.496000   34.222000   22.649000 O     4 SER    -0.6546 ****
 32 HG     34.304000   33.770000   22.386000 H     4 SER     0.4275 ****
 33 C      30.620000   34.696000   23.101000 C     4 SER     0.5973 ****
 34 O      29.543000   34.170000   22.821000 O     4 SER    -0.5679 ****
 35 N      31.019000   35.847000   22.550000 N     5 NME    -0.4157 ****
 36 H      31.959000   36.151000   22.763000 H     5 NME     0.2719 ****
 37 CH3    30.236000   36.619000   21.587000 C     5 NME    -0.1490 ****
 38 HH31   29.263000   36.865000   22.017000 H     5 NME     0.0976 ****
 39 HH32   30.760000   37.541000   21.330000 H     5 NME     0.0976 ****
 40 HH33   30.080000   36.028000   20.683000 H     5 NME     0.0976 ****
@<TRIPOS>BOND
    1     5     6 1
    2     5     7 1
    3     2     3 1
    4     2     4 1
    5     2     5 1
    6     1     2 1
    7    12    13 1
    8    12    14 1
    9     9    10 1
   10     9    11 1
   11     9    12 1
   12     7     8 1
   13     7     9 1
   14    22    23 1
   15    22    24 1
   16    18    19 1
   17    18    20 1
   18    18    21 1
   19    16    17 1
   20    16    18 1
   21    16    22 1
   22    14    15 1
   23    14    16 1
   24    33    34 1
   25    33    35 1
   26    31    32 1
   27    28    29 1
   28    28    30 1
   29    28    31 1
   30    26    27 1
   31    26    28 1
   32    26    33 1
   33    24    25 1
   34    24    26 1
   35    37    38 1
   36    37    39 1
   37    37    40 1
   38    35    36 1
   39    35    37 1
@<TRIPOS>SUBSTRUCTURE
      1  ACE              1 ****               0 ****  **** 
      2  GLY              7 ****               0 ****  **** 
      3  ALA             14 ****               0 ****  **** 
      4  SER             24 ****               0 ****  **** 
      5  NME             35 ****               0 ****  **** 
