@<TRIPOS>MOLECULE
default_name
   40    39     5     0     1 
SMALL
USER_CHARGES
@<TRIPOS>ATOM
  1 H1     26.016000   31.834000   22.789000 H     1 ACE     0.1123 ****
  2 CH3    27.045000   31.865000   22.435000 C     1 ACE    -0.3662 ****
  3 H2     27.511000   32.799000   22.743000 H     1 ACE     0.1123 ****
  4 H3     27.061000   31.789000   21.349000 H     1 ACE     0.1123 ****
  5 C      27.808000   30.706000   23.029000 C     1 ACE     0.5972 ****
  6 O      27.264000   29.961000   23.834000 O     1 ACE    -0.5679 ****
  7 N      29.075000   30.559000   22.646000 N     2 GLY    -0.4157 ****
  8 H      29.461000   31.274000   22.042000 H     2 GLY     0.2719 ****
  9 CA     29.980000   29.508000   23.137000 C     2 GLY    -0.0252 ****
 10 HA2    29.408000   28.618000   23.404000 H     2 GLY     0.0698 ****
 11 HA3    30.684000   29.241000   22.348000 H     2 GLY     0.0698 ****
 12 C      30.773000   29.969000   24.359000 C     2 GLY     0.5973 ****
 13 O      31.980000   30.163000   24.258000 O     2 GLY    -0.5679 ****
 14 N      30.081000   30.258000   25.470000 N     3 ALA    -0.4157 ****
 15 H      29.106000   30.001000   25.477000 H     3 ALA     0.2719 ****
 16 CA     30.536000   31.124000   26.575000 C     3 ALA     0.0337 ****
 17 HA     29.648000   31.407000   27.141000 H     3 ALA     0.0823 ****
 18 CB     31.425000   30.296000   27.517000 C     3 ALA    -0.1825 ****
 19 HB1    32.350000   30.021000   27.008000 H     3 ALA     0.0603 ****
 20 HB2    31.672000   30.884000   28.402000 H     3 ALA     0.0603 ****
 21 HB3    30.901000   29.392000   27.828000 H     3 ALA     0.0603 ****
 22 C      31.195000   32.463000   26.141000 C     3 ALA     0.5973 ****
 23 O      31.853000   33.131000   26.935000 O     3 ALA    -0.5679 ****
 24 N      30.990000   32.871000   24.885000 N     4 SER    -0.4157 ****
 25 H      30.441000   32.271000   24.290000 H     4 SER     0.2719 ****
 26 CA     31.537000   34.062000   24.234000 C     4 SER    -0.0249 ****
 27 HA     31.392000   34.927000   24.881000 H     4 SER     0.0843 ****
 28 CB     33.041000   33.871000   23.997000 C     4 SER     0.2117 ****
 29 HB2    33.530000   33.646000   24.946000 H     4 SER     0.0352 ****
 30 HB3    33.200000   33.036000   23.314000 H     4 SER     0.0352 ****
 31 OG     33.616000   35.047000   23.457000 O     4 SER    -0.6546 ****
 32 HG     34.572000   34.939000   23.461000 H     4 SER     0.4275 ****
 33 C      30.801000   34.300000   22.904000 C     4 SER     0.5973 ****
 34 O      30.098000   33.409000   22.414000 O     4 SER    -0.5679 ****
 35 N      30.949000   35.494000   22.320000 N     5 NME    -0.4157 ****
 36 H      31.621000   36.121000   22.741000 H     5 NME     0.2719 ****
 37 CH3    30.307000   35.893000   21.070000 C     5 NME    -0.1490 ****
 38 HH31   29.223000   35.827000   21.173000 H     5 NME     0.0976 ****
 39 HH32   30.583000   36.918000   20.818000 H     5 NME     0.0976 ****
 40 HH33   30.625000   35.228000   20.265000 H     5 NME     0.0976 ****
@<TRIPOS>BOND
    1     5     6 1
    2     5     7 1
    3     2     3 1
    4     2     4 1
    5     2     5 1
    6     1     2 1
    7    12    13 1
    8    12    14 1
    9     9    10 1
   10     9    11 1
   11     9    12 1
   12     7     8 1
   13     7     9 1
   14    22    23 1
   15    22    24 1
   16    18    19 1
   17    18    20 1
   18    18    21 1
   19    16    17 1
   20    16    18 1
   21    16    22 1
   22    14    15 1
   23    14    16 1
   24    33    34 1
   25    33    35 1
   26    31    32 1
   27    28    29 1
   28    28    30 1
   29    28    31 1
   30    26    27 1
   31    26    28 1
   32    26    33 1
   33    24    25 1
   34    24    26 1
   35    37    38 1
   36    37    39 1
   37    37    40 1
   38    35    36 1
   39    35    37 1
@<TRIPOS>SUBSTRUCTURE
      1  ACE              1 ****               0 ****  **** 
      2  GLY              7 ****               0 ****  **** 
      3  ALA             14 ****               0 ****  **** 
      4  SER             24 ****               0 ****  **** 
      5  NME             35 ****               0 ****  **** 
