@<TRIPOS>MOLECULE
default_name
   40    39     5     0     1 
SMALL
USER_CHARGES
@<TRIPOS>ATOM
  1 H1     25.504000   27.690000   23.794000 H     1 ACE     0.1123 ****
  2 CH3    26.378000   27.660000   23.144000 C     1 ACE    -0.3662 ****
  3 H2     26.194000   28.269000   22.260000 H     1 ACE     0.1123 ****
  4 H3     26.580000   26.631000   22.853000 H     1 ACE     0.1123 ****
  5 C      27.566000   28.213000   23.895000 C     1 ACE     0.5972 ****
  6 O      27.439000   28.603000   25.049000 O     1 ACE    -0.5679 ****
  7 N      28.725000   28.249000   23.241000 N     2 GLY    -0.4157 ****
  8 H      28.745000   27.932000   22.285000 H     2 GLY     0.2719 ****
  9 CA     29.958000   28.800000   23.811000 C     2 GLY    -0.0252 ****
 10 HA2    30.088000   28.432000   24.830000 H     2 GLY     0.0698 ****
 11 HA3    30.810000   28.467000   23.219000 H     2 GLY     0.0698 ****
 12 C      29.958000   30.331000   23.826000 C     2 GLY     0.5973 ****
 13 O      30.331000   30.937000   22.827000 O     2 GLY    -0.5679 ****
 14 N      29.523000   30.918000   24.945000 N     3 ALA    -0.4157 ****
 15 H      29.163000   30.290000   25.648000 H     3 ALA     0.2719 ****
 16 CA     29.540000   32.336000   25.342000 C     3 ALA     0.0337 ****
 17 HA     28.782000   32.842000   24.744000 H     3 ALA     0.0823 ****
 18 CB     29.076000   32.411000   26.804000 C     3 ALA    -0.1825 ****
 19 HB1    29.791000   31.900000   27.451000 H     3 ALA     0.0603 ****
 20 HB2    29.008000   33.456000   27.112000 H     3 ALA     0.0603 ****
 21 HB3    28.095000   31.947000   26.911000 H     3 ALA     0.0603 ****
 22 C      30.863000   33.108000   25.091000 C     3 ALA     0.5973 ****
 23 O      31.646000   33.315000   26.017000 O     3 ALA    -0.5679 ****
 24 N      31.150000   33.488000   23.844000 N     4 SER    -0.4157 ****
 25 H      30.442000   33.369000   23.138000 H     4 SER     0.2719 ****
 26 CA     32.341000   34.262000   23.469000 C     4 SER    -0.0249 ****
 27 HA     33.148000   34.022000   24.162000 H     4 SER     0.0843 ****
 28 CB     32.798000   33.848000   22.070000 C     4 SER     0.2117 ****
 29 HB2    32.914000   32.763000   22.037000 H     4 SER     0.0352 ****
 30 HB3    32.045000   34.148000   21.338000 H     4 SER     0.0352 ****
 31 OG     34.036000   34.456000   21.756000 O     4 SER    -0.6546 ****
 32 HG     34.293000   34.185000   20.869000 H     4 SER     0.4275 ****
 33 C      32.084000   35.774000   23.548000 C     4 SER     0.5973 ****
 34 O      30.950000   36.223000   23.377000 O     4 SER    -0.5679 ****
 35 N      33.138000   36.562000   23.786000 N     5 NME    -0.4157 ****
 36 H      34.041000   36.114000   23.845000 H     5 NME     0.2719 ****
 37 CH3    33.071000   38.017000   23.903000 C     5 NME    -0.1490 ****
 38 HH31   32.399000   38.287000   24.721000 H     5 NME     0.0976 ****
 39 HH32   34.063000   38.425000   24.100000 H     5 NME     0.0976 ****
 40 HH33   32.681000   38.442000   22.977000 H     5 NME     0.0976 ****
@<TRIPOS>BOND
    1     5     6 1
    2     5     7 1
    3     2     3 1
    4     2     4 1
    5     2     5 1
    6     1     2 1
    7    12    13 1
    8    12    14 1
    9     9    10 1
   10     9    11 1
   11     9    12 1
   12     7     8 1
   13     7     9 1
   14    22    23 1
   15    22    24 1
   16    18    19 1
   17    18    20 1
   18    18    21 1
   19    16    17 1
   20    16    18 1
   21    16    22 1
   22    14    15 1
   23    14    16 1
   24    33    34 1
   25    33    35 1
   26    31    32 1
   27    28    29 1
   28    28    30 1
   29    28    31 1
   30    26    27 1
   31    26    28 1
   32    26    33 1
   33    24    25 1
   34    24    26 1
   35    37    38 1
   36    37    39 1
   37    37    40 1
   38    35    36 1
   39    35    37 1
@<TRIPOS>SUBSTRUCTURE
      1  ACE              1 ****               0 ****  **** 
      2  GLY              7 ****               0 ****  **** 
      3  ALA             14 ****               0 ****  **** 
      4  SER             24 ****               0 ****  **** 
      5  NME             35 ****               0 ****  **** 
