@<TRIPOS>MOLECULE
default_name
   40    39     5     0     1 
SMALL
USER_CHARGES
@<TRIPOS>ATOM
  1 H1     25.660000   28.133000   22.378000 H     1 ACE     0.1123 ****
  2 CH3    26.708000   27.855000   22.270000 C     1 ACE    -0.3662 ****
  3 H2     27.113000   28.309000   21.368000 H     1 ACE     0.1123 ****
  4 H3     26.793000   26.772000   22.214000 H     1 ACE     0.1123 ****
  5 C      27.473000   28.357000   23.471000 C     1 ACE     0.5972 ****
  6 O      26.895000   28.970000   24.360000 O     1 ACE    -0.5679 ****
  7 N      28.780000   28.100000   23.499000 N     2 GLY    -0.4157 ****
  8 H      29.189000   27.615000   22.717000 H     2 GLY     0.2719 ****
  9 CA     29.674000   28.566000   24.563000 C     2 GLY    -0.0252 ****
 10 HA2    29.213000   28.392000   25.535000 H     2 GLY     0.0698 ****
 11 HA3    30.607000   28.003000   24.524000 H     2 GLY     0.0698 ****
 12 C      30.013000   30.052000   24.426000 C     2 GLY     0.5973 ****
 13 O      30.916000   30.394000   23.668000 O     2 GLY    -0.5679 ****
 14 N      29.240000   30.910000   25.105000 N     3 ALA    -0.4157 ****
 15 H      28.439000   30.501000   25.560000 H     3 ALA     0.2719 ****
 16 CA     29.538000   32.298000   25.491000 C     3 ALA     0.0337 ****
 17 HA     28.809000   32.931000   24.986000 H     3 ALA     0.0823 ****
 18 CB     29.290000   32.435000   27.000000 C     3 ALA    -0.1825 ****
 19 HB1    29.986000   31.799000   27.549000 H     3 ALA     0.0603 ****
 20 HB2    29.443000   33.471000   27.304000 H     3 ALA     0.0603 ****
 21 HB3    28.267000   32.143000   27.240000 H     3 ALA     0.0603 ****
 22 C      30.940000   32.826000   25.107000 C     3 ALA     0.5973 ****
 23 O      31.953000   32.348000   25.616000 O     3 ALA    -0.5679 ****
 24 N      30.992000   33.890000   24.302000 N     4 SER    -0.4157 ****
 25 H      30.131000   34.295000   23.962000 H     4 SER     0.2719 ****
 26 CA     32.231000   34.541000   23.861000 C     4 SER    -0.0249 ****
 27 HA     32.908000   34.630000   24.712000 H     4 SER     0.0843 ****
 28 CB     32.913000   33.668000   22.798000 C     4 SER     0.2117 ****
 29 HB2    33.041000   32.659000   23.192000 H     4 SER     0.0352 ****
 30 HB3    32.285000   33.619000   21.907000 H     4 SER     0.0352 ****
 31 OG     34.186000   34.186000   22.456000 O     4 SER    -0.6546 ****
 32 HG     34.666000   33.499000   21.981000 H     4 SER     0.4275 ****
 33 C      31.941000   35.955000   23.331000 C     4 SER     0.5973 ****
 34 O      30.779000   36.317000   23.141000 O     4 SER    -0.5679 ****
 35 N      32.986000   36.758000   23.105000 N     5 NME    -0.4157 ****
 36 H      33.903000   36.340000   23.199000 H     5 NME     0.2719 ****
 37 CH3    32.887000   38.135000   22.627000 C     5 NME    -0.1490 ****
 38 HH31   32.295000   38.726000   23.328000 H     5 NME     0.0976 ****
 39 HH32   33.882000   38.573000   22.534000 H     5 NME     0.0976 ****
 40 HH33   32.394000   38.150000   21.653000 H     5 NME     0.0976 ****
@<TRIPOS>BOND
    1     5     6 1
    2     5     7 1
    3     2     3 1
    4     2     4 1
    5     2     5 1
    6     1     2 1
    7    12    13 1
    8    12    14 1
    9     9    10 1
   10     9    11 1
   11     9    12 1
   12     7     8 1
   13     7     9 1
   14    22    23 1
   15    22    24 1
   16    18    19 1
   17    18    20 1
   18    18    21 1
   19    16    17 1
   20    16    18 1
   21    16    22 1
   22    14    15 1
   23    14    16 1
   24    33    34 1
   25    33    35 1
   26    31    32 1
   27    28    29 1
   28    28    30 1
   29    28    31 1
   30    26    27 1
   31    26    28 1
   32    26    33 1
   33    24    25 1
   34    24    26 1
   35    37    38 1
   36    37    39 1
   37    37    40 1
   38    35    36 1
   39    35    37 1
@<TRIPOS>SUBSTRUCTURE
      1  ACE              1 ****               0 ****  **** 
      2  GLY              7 ****               0 ****  **** 
      3  ALA             14 ****               0 ****  **** 
      4  SER             24 ****               0 ****  **** 
      5  NME             35 ****               0 ****  **** 
