@<TRIPOS>MOLECULE
default_name
   40    39     5     0     1 
SMALL
USER_CHARGES
@<TRIPOS>ATOM
  1 H1     27.604000   25.812000   21.609000 H     1 ACE     0.1123 ****
  2 CH3    27.721000   26.352000   22.548000 C     1 ACE    -0.3662 ****
  3 H2     28.549000   25.929000   23.113000 H     1 ACE     0.1123 ****
  4 H3     26.802000   26.283000   23.126000 H     1 ACE     0.1123 ****
  5 C      28.012000   27.803000   22.244000 C     1 ACE     0.5972 ****
  6 O      28.082000   28.189000   21.085000 O     1 ACE    -0.5679 ****
  7 N      28.185000   28.610000   23.287000 N     2 GLY    -0.4157 ****
  8 H      28.117000   28.229000   24.221000 H     2 GLY     0.2719 ****
  9 CA     28.473000   30.040000   23.177000 C     2 GLY    -0.0252 ****
 10 HA2    29.389000   30.177000   22.602000 H     2 GLY     0.0698 ****
 11 HA3    27.657000   30.529000   22.643000 H     2 GLY     0.0698 ****
 12 C      28.642000   30.714000   24.542000 C     2 GLY     0.5973 ****
 13 O      28.524000   30.046000   25.565000 O     2 GLY    -0.5679 ****
 14 N      28.936000   32.022000   24.507000 N     3 ALA    -0.4157 ****
 15 H      29.005000   32.408000   23.579000 H     3 ALA     0.2719 ****
 16 CA     29.084000   33.003000   25.608000 C     3 ALA     0.0337 ****
 17 HA     28.448000   33.842000   25.323000 H     3 ALA     0.0823 ****
 18 CB     28.522000   32.537000   26.963000 C     3 ALA    -0.1825 ****
 19 HB1    29.149000   31.746000   27.378000 H     3 ALA     0.0603 ****
 20 HB2    28.518000   33.373000   27.663000 H     3 ALA     0.0603 ****
 21 HB3    27.501000   32.173000   26.846000 H     3 ALA     0.0603 ****
 22 C      30.502000   33.614000   25.676000 C     3 ALA     0.5973 ****
 23 O      31.108000   33.715000   26.740000 O     3 ALA    -0.5679 ****
 24 N      31.045000   34.022000   24.525000 N     4 SER    -0.4157 ****
 25 H      30.501000   33.959000   23.677000 H     4 SER     0.2719 ****
 26 CA     32.344000   34.694000   24.386000 C     4 SER    -0.0249 ****
 27 HA     32.448000   35.435000   25.179000 H     4 SER     0.0843 ****
 28 CB     33.481000   33.673000   24.533000 C     4 SER     0.2117 ****
 29 HB2    33.362000   33.136000   25.476000 H     4 SER     0.0352 ****
 30 HB3    33.439000   32.957000   23.711000 H     4 SER     0.0352 ****
 31 OG     34.739000   34.322000   24.536000 O     4 SER    -0.6546 ****
 32 HG     35.405000   33.688000   24.823000 H     4 SER     0.4275 ****
 33 C      32.410000   35.422000   23.034000 C     4 SER     0.5973 ****
 34 O      31.542000   35.213000   22.184000 O     4 SER    -0.5679 ****
 35 N      33.417000   36.279000   22.835000 N     5 NME    -0.4157 ****
 36 H      34.130000   36.314000   23.552000 H     5 NME     0.2719 ****
 37 CH3    33.608000   37.067000   21.619000 C     5 NME    -0.1490 ****
 38 HH31   32.737000   37.703000   21.450000 H     5 NME     0.0976 ****
 39 HH32   34.498000   37.691000   21.711000 H     5 NME     0.0976 ****
 40 HH33   33.724000   36.399000   20.763000 H     5 NME     0.0976 ****
@<TRIPOS>BOND
    1     5     6 1
    2     5     7 1
    3     2     3 1
    4     2     4 1
    5     2     5 1
    6     1     2 1
    7    12    13 1
    8    12    14 1
    9     9    10 1
   10     9    11 1
   11     9    12 1
   12     7     8 1
   13     7     9 1
   14    22    23 1
   15    22    24 1
   16    18    19 1
   17    18    20 1
   18    18    21 1
   19    16    17 1
   20    16    18 1
   21    16    22 1
   22    14    15 1
   23    14    16 1
   24    33    34 1
   25    33    35 1
   26    31    32 1
   27    28    29 1
   28    28    30 1
   29    28    31 1
   30    26    27 1
   31    26    28 1
   32    26    33 1
   33    24    25 1
   34    24    26 1
   35    37    38 1
   36    37    39 1
   37    37    40 1
   38    35    36 1
   39    35    37 1
@<TRIPOS>SUBSTRUCTURE
      1  ACE              1 ****               0 ****  **** 
      2  GLY              7 ****               0 ****  **** 
      3  ALA             14 ****               0 ****  **** 
      4  SER             24 ****               0 ****  **** 
      5  NME             35 ****               0 ****  **** 
