@<TRIPOS>MOLECULE
default_name
   40    39     5     0     1 
SMALL
USER_CHARGES
@<TRIPOS>ATOM
  1 H1     25.920000   26.562000   21.588000 H     1 ACE     0.1123 ****
  2 CH3    26.033000   27.575000   21.970000 C     1 ACE    -0.3662 ****
  3 H2     25.182000   27.827000   22.599000 H     1 ACE     0.1123 ****
  4 H3     26.101000   28.275000   21.139000 H     1 ACE     0.1123 ****
  5 C      27.300000   27.651000   22.790000 C     1 ACE     0.5972 ****
  6 O      28.004000   26.660000   22.931000 O     1 ACE    -0.5679 ****
  7 N      27.589000   28.830000   23.333000 N     2 GLY    -0.4157 ****
  8 H      26.966000   29.611000   23.180000 H     2 GLY     0.2719 ****
  9 CA     28.776000   29.088000   24.150000 C     2 GLY    -0.0252 ****
 10 HA2    28.782000   28.409000   25.002000 H     2 GLY     0.0698 ****
 11 HA3    29.668000   28.900000   23.553000 H     2 GLY     0.0698 ****
 12 C      28.827000   30.528000   24.666000 C     2 GLY     0.5973 ****
 13 O      27.904000   31.306000   24.434000 O     2 GLY    -0.5679 ****
 14 N      29.899000   30.864000   25.390000 N     3 ALA    -0.4157 ****
 15 H      30.601000   30.161000   25.545000 H     3 ALA     0.2719 ****
 16 CA     30.215000   32.240000   25.783000 C     3 ALA     0.0337 ****
 17 HA     29.288000   32.811000   25.873000 H     3 ALA     0.0823 ****
 18 CB     30.860000   32.182000   27.180000 C     3 ALA    -0.1825 ****
 19 HB1    31.816000   31.658000   27.138000 H     3 ALA     0.0603 ****
 20 HB2    31.011000   33.192000   27.564000 H     3 ALA     0.0603 ****
 21 HB3    30.195000   31.656000   27.867000 H     3 ALA     0.0603 ****
 22 C      31.067000   32.955000   24.702000 C     3 ALA     0.5973 ****
 23 O      30.807000   32.804000   23.511000 O     3 ALA    -0.5679 ****
 24 N      32.133000   33.665000   25.103000 N     4 SER    -0.4157 ****
 25 H      32.285000   33.729000   26.095000 H     4 SER     0.2719 ****
 26 CA     32.877000   34.619000   24.257000 C     4 SER    -0.0249 ****
 27 HA     33.673000   35.039000   24.870000 H     4 SER     0.0843 ****
 28 CB     33.571000   33.882000   23.097000 C     4 SER     0.2117 ****
 29 HB2    34.031000   32.969000   23.478000 H     4 SER     0.0352 ****
 30 HB3    32.838000   33.615000   22.334000 H     4 SER     0.0352 ****
 31 OG     34.579000   34.687000   22.511000 O     4 SER    -0.6546 ****
 32 HG     35.020000   34.169000   21.829000 H     4 SER     0.4275 ****
 33 C      32.008000   35.817000   23.816000 C     4 SER     0.5973 ****
 34 O      30.938000   36.049000   24.377000 O     4 SER    -0.5679 ****
 35 N      32.495000   36.626000   22.868000 N     5 NME    -0.4157 ****
 36 H      33.389000   36.366000   22.469000 H     5 NME     0.2719 ****
 37 CH3    31.811000   37.812000   22.357000 C     5 NME    -0.1490 ****
 38 HH31   31.643000   38.519000   23.170000 H     5 NME     0.0976 ****
 39 HH32   32.411000   38.288000   21.580000 H     5 NME     0.0976 ****
 40 HH33   30.844000   37.524000   21.940000 H     5 NME     0.0976 ****
@<TRIPOS>BOND
    1     5     6 1
    2     5     7 1
    3     2     3 1
    4     2     4 1
    5     2     5 1
    6     1     2 1
    7    12    13 1
    8    12    14 1
    9     9    10 1
   10     9    11 1
   11     9    12 1
   12     7     8 1
   13     7     9 1
   14    22    23 1
   15    22    24 1
   16    18    19 1
   17    18    20 1
   18    18    21 1
   19    16    17 1
   20    16    18 1
   21    16    22 1
   22    14    15 1
   23    14    16 1
   24    33    34 1
   25    33    35 1
   26    31    32 1
   27    28    29 1
   28    28    30 1
   29    28    31 1
   30    26    27 1
   31    26    28 1
   32    26    33 1
   33    24    25 1
   34    24    26 1
   35    37    38 1
   36    37    39 1
   37    37    40 1
   38    35    36 1
   39    35    37 1
@<TRIPOS>SUBSTRUCTURE
      1  ACE              1 ****               0 ****  **** 
      2  GLY              7 ****               0 ****  **** 
      3  ALA             14 ****               0 ****  **** 
      4  SER             24 ****               0 ****  **** 
      5  NME             35 ****               0 ****  **** 
