@<TRIPOS>MOLECULE
default_name
   40    39     5     0     1 
SMALL
USER_CHARGES
@<TRIPOS>ATOM
  1 H1     25.495000   27.612000   23.846000 H     1 ACE     0.1123 ****
  2 CH3    26.281000   27.698000   23.097000 C     1 ACE    -0.3662 ****
  3 H2     25.983000   28.417000   22.337000 H     1 ACE     0.1123 ****
  4 H3     26.458000   26.725000   22.642000 H     1 ACE     0.1123 ****
  5 C      27.547000   28.175000   23.769000 C     1 ACE     0.5972 ****
  6 O      27.560000   28.398000   24.973000 O     1 ACE    -0.5679 ****
  7 N      28.615000   28.335000   22.990000 N     2 GLY    -0.4157 ****
  8 H      28.519000   28.153000   22.004000 H     2 GLY     0.2719 ****
  9 CA     29.905000   28.836000   23.476000 C     2 GLY    -0.0252 ****
 10 HA2    30.168000   28.332000   24.406000 H     2 GLY     0.0698 ****
 11 HA3    30.678000   28.618000   22.739000 H     2 GLY     0.0698 ****
 12 C      29.887000   30.347000   23.715000 C     2 GLY     0.5973 ****
 13 O      30.179000   31.116000   22.802000 O     2 GLY    -0.5679 ****
 14 N      29.547000   30.771000   24.934000 N     3 ALA    -0.4157 ****
 15 H      29.274000   30.081000   25.619000 H     3 ALA     0.2719 ****
 16 CA     29.556000   32.173000   25.348000 C     3 ALA     0.0337 ****
 17 HA     28.858000   32.718000   24.710000 H     3 ALA     0.0823 ****
 18 CB     29.046000   32.264000   26.792000 C     3 ALA    -0.1825 ****
 19 HB1    29.717000   31.719000   27.458000 H     3 ALA     0.0603 ****
 20 HB2    29.010000   33.309000   27.102000 H     3 ALA     0.0603 ****
 21 HB3    28.044000   31.838000   26.860000 H     3 ALA     0.0603 ****
 22 C      30.952000   32.808000   25.182000 C     3 ALA     0.5973 ****
 23 O      31.920000   32.367000   25.799000 O     3 ALA    -0.5679 ****
 24 N      31.054000   33.837000   24.338000 N     4 SER    -0.4157 ****
 25 H      30.224000   34.161000   23.862000 H     4 SER     0.2719 ****
 26 CA     32.301000   34.540000   24.015000 C     4 SER    -0.0249 ****
 27 HA     32.897000   34.641000   24.923000 H     4 SER     0.0843 ****
 28 CB     33.103000   33.705000   23.008000 C     4 SER     0.2117 ****
 29 HB2    33.230000   32.695000   23.402000 H     4 SER     0.0352 ****
 30 HB3    32.555000   33.646000   22.066000 H     4 SER     0.0352 ****
 31 OG     34.382000   34.271000   22.783000 O     4 SER    -0.6546 ****
 32 HG     34.895000   33.648000   22.259000 H     4 SER     0.4275 ****
 33 C      32.010000   35.949000   23.476000 C     4 SER     0.5973 ****
 34 O      30.860000   36.272000   23.173000 O     4 SER    -0.5679 ****
 35 N      33.041000   36.794000   23.365000 N     5 NME    -0.4157 ****
 36 H      33.959000   36.410000   23.548000 H     5 NME     0.2719 ****
 37 CH3    32.937000   38.173000   22.896000 C     5 NME    -0.1490 ****
 38 HH31   32.257000   38.732000   23.542000 H     5 NME     0.0976 ****
 39 HH32   33.918000   38.650000   22.906000 H     5 NME     0.0976 ****
 40 HH33   32.540000   38.186000   21.879000 H     5 NME     0.0976 ****
@<TRIPOS>BOND
    1     5     6 1
    2     5     7 1
    3     2     3 1
    4     2     4 1
    5     2     5 1
    6     1     2 1
    7    12    13 1
    8    12    14 1
    9     9    10 1
   10     9    11 1
   11     9    12 1
   12     7     8 1
   13     7     9 1
   14    22    23 1
   15    22    24 1
   16    18    19 1
   17    18    20 1
   18    18    21 1
   19    16    17 1
   20    16    18 1
   21    16    22 1
   22    14    15 1
   23    14    16 1
   24    33    34 1
   25    33    35 1
   26    31    32 1
   27    28    29 1
   28    28    30 1
   29    28    31 1
   30    26    27 1
   31    26    28 1
   32    26    33 1
   33    24    25 1
   34    24    26 1
   35    37    38 1
   36    37    39 1
   37    37    40 1
   38    35    36 1
   39    35    37 1
@<TRIPOS>SUBSTRUCTURE
      1  ACE              1 ****               0 ****  **** 
      2  GLY              7 ****               0 ****  **** 
      3  ALA             14 ****               0 ****  **** 
      4  SER             24 ****               0 ****  **** 
      5  NME             35 ****               0 ****  **** 
