@<TRIPOS>MOLECULE
default_name
   40    39     5     0     1 
SMALL
USER_CHARGES
@<TRIPOS>ATOM
  1 H1     27.390000   27.296000   21.871000 H     1 ACE     0.1123 ****
  2 CH3    27.970000   28.179000   21.615000 C     1 ACE    -0.3662 ****
  3 H2     27.466000   28.749000   20.836000 H     1 ACE     0.1123 ****
  4 H3     28.956000   27.883000   21.257000 H     1 ACE     0.1123 ****
  5 C      28.138000   29.048000   22.839000 C     1 ACE     0.5972 ****
  6 O      29.244000   29.181000   23.347000 O     1 ACE    -0.5679 ****
  7 N      27.047000   29.664000   23.294000 N     2 GLY    -0.4157 ****
  8 H      26.185000   29.516000   22.797000 H     2 GLY     0.2719 ****
  9 CA     27.101000   30.782000   24.245000 C     2 GLY    -0.0252 ****
 10 HA2    26.086000   31.078000   24.504000 H     2 GLY     0.0698 ****
 11 HA3    27.588000   30.471000   25.158000 H     2 GLY     0.0698 ****
 12 C      27.792000   31.993000   23.598000 C     2 GLY     0.5973 ****
 13 O      27.350000   32.363000   22.509000 O     2 GLY    -0.5679 ****
 14 N      28.822000   32.649000   24.175000 N     3 ALA    -0.4157 ****
 15 H      29.178000   33.438000   23.648000 H     3 ALA     0.2719 ****
 16 CA     29.509000   32.517000   25.473000 C     3 ALA     0.0337 ****
 17 HA     28.816000   32.756000   26.281000 H     3 ALA     0.0823 ****
 18 CB     30.125000   31.120000   25.726000 C     3 ALA    -0.1825 ****
 19 HB1    30.660000   30.769000   24.842000 H     3 ALA     0.0603 ****
 20 HB2    30.813000   31.169000   26.571000 H     3 ALA     0.0603 ****
 21 HB3    29.374000   30.389000   26.005000 H     3 ALA     0.0603 ****
 22 C      30.609000   33.608000   25.462000 C     3 ALA     0.5973 ****
 23 O      30.294000   34.791000   25.545000 O     3 ALA    -0.5679 ****
 24 N      31.882000   33.229000   25.301000 N     4 SER    -0.4157 ****
 25 H      32.050000   32.239000   25.203000 H     4 SER     0.2719 ****
 26 CA     33.014000   34.124000   25.025000 C     4 SER    -0.0249 ****
 27 HA     32.903000   35.042000   25.602000 H     4 SER     0.0843 ****
 28 CB     34.305000   33.432000   25.488000 C     4 SER     0.2117 ****
 29 HB2    34.306000   33.367000   26.576000 H     4 SER     0.0352 ****
 30 HB3    34.347000   32.421000   25.077000 H     4 SER     0.0352 ****
 31 OG     35.445000   34.145000   25.064000 O     4 SER    -0.6546 ****
 32 HG     35.481000   34.064000   24.099000 H     4 SER     0.4275 ****
 33 C      33.064000   34.498000   23.532000 C     4 SER     0.5973 ****
 34 O      33.824000   33.905000   22.766000 O     4 SER    -0.5679 ****
 35 N      32.236000   35.463000   23.111000 N     5 NME    -0.4157 ****
 36 H      31.642000   35.908000   23.795000 H     5 NME     0.2719 ****
 37 CH3    32.110000   35.890000   21.718000 C     5 NME    -0.1490 ****
 38 HH31   31.610000   36.858000   21.666000 H     5 NME     0.0976 ****
 39 HH32   33.099000   35.975000   21.262000 H     5 NME     0.0976 ****
 40 HH33   31.530000   35.155000   21.158000 H     5 NME     0.0976 ****
@<TRIPOS>BOND
    1     5     6 1
    2     5     7 1
    3     2     3 1
    4     2     4 1
    5     2     5 1
    6     1     2 1
    7    12    13 1
    8    12    14 1
    9     9    10 1
   10     9    11 1
   11     9    12 1
   12     7     8 1
   13     7     9 1
   14    22    23 1
   15    22    24 1
   16    18    19 1
   17    18    20 1
   18    18    21 1
   19    16    17 1
   20    16    18 1
   21    16    22 1
   22    14    15 1
   23    14    16 1
   24    33    34 1
   25    33    35 1
   26    31    32 1
   27    28    29 1
   28    28    30 1
   29    28    31 1
   30    26    27 1
   31    26    28 1
   32    26    33 1
   33    24    25 1
   34    24    26 1
   35    37    38 1
   36    37    39 1
   37    37    40 1
   38    35    36 1
   39    35    37 1
@<TRIPOS>SUBSTRUCTURE
      1  ACE              1 ****               0 ****  **** 
      2  GLY              7 ****               0 ****  **** 
      3  ALA             14 ****               0 ****  **** 
      4  SER             24 ****               0 ****  **** 
      5  NME             35 ****               0 ****  **** 
