@<TRIPOS>MOLECULE
default_name
   40    39     5     0     1 
SMALL
USER_CHARGES
@<TRIPOS>ATOM
  1 H1     26.063000   32.014000   22.803000 H     1 ACE     0.1123 ****
  2 CH3    27.089000   31.961000   22.441000 C     1 ACE    -0.3662 ****
  3 H2     27.628000   32.861000   22.731000 H     1 ACE     0.1123 ****
  4 H3     27.091000   31.867000   21.357000 H     1 ACE     0.1123 ****
  5 C      27.765000   30.756000   23.049000 C     1 ACE     0.5972 ****
  6 O      27.169000   30.061000   23.862000 O     1 ACE    -0.5679 ****
  7 N      29.019000   30.515000   22.670000 N     2 GLY    -0.4157 ****
  8 H      29.456000   31.196000   22.060000 H     2 GLY     0.2719 ****
  9 CA     29.851000   29.415000   23.180000 C     2 GLY    -0.0252 ****
 10 HA2    29.220000   28.577000   23.479000 H     2 GLY     0.0698 ****
 11 HA3    30.523000   29.075000   22.391000 H     2 GLY     0.0698 ****
 12 C      30.693000   29.849000   24.380000 C     2 GLY     0.5973 ****
 13 O      31.913000   29.909000   24.270000 O     2 GLY    -0.5679 ****
 14 N      30.038000   30.282000   25.465000 N     3 ALA    -0.4157 ****
 15 H      29.037000   30.155000   25.474000 H     3 ALA     0.2719 ****
 16 CA     30.608000   31.081000   26.566000 C     3 ALA     0.0337 ****
 17 HA     29.779000   31.302000   27.239000 H     3 ALA     0.0823 ****
 18 CB     31.605000   30.242000   27.382000 C     3 ALA    -0.1825 ****
 19 HB1    32.501000   30.041000   26.794000 H     3 ALA     0.0603 ****
 20 HB2    31.893000   30.791000   28.279000 H     3 ALA     0.0603 ****
 21 HB3    31.146000   29.298000   27.676000 H     3 ALA     0.0603 ****
 22 C      31.153000   32.471000   26.147000 C     3 ALA     0.5973 ****
 23 O      31.581000   33.253000   26.992000 O     3 ALA    -0.5679 ****
 24 N      31.105000   32.799000   24.853000 N     4 SER    -0.4157 ****
 25 H      30.745000   32.108000   24.214000 H     4 SER     0.2719 ****
 26 CA     31.492000   34.072000   24.242000 C     4 SER    -0.0249 ****
 27 HA     31.134000   34.892000   24.865000 H     4 SER     0.0843 ****
 28 CB     33.022000   34.157000   24.164000 C     4 SER     0.2117 ****
 29 HB2    33.440000   34.002000   25.160000 H     4 SER     0.0352 ****
 30 HB3    33.398000   33.377000   23.500000 H     4 SER     0.0352 ****
 31 OG     33.432000   35.426000   23.690000 O     4 SER    -0.6546 ****
 32 HG     34.384000   35.498000   23.814000 H     4 SER     0.4275 ****
 33 C      30.846000   34.194000   22.850000 C     4 SER     0.5973 ****
 34 O      30.276000   33.223000   22.339000 O     4 SER    -0.5679 ****
 35 N      30.911000   35.381000   22.240000 N     5 NME    -0.4157 ****
 36 H      31.477000   36.089000   22.691000 H     5 NME     0.2719 ****
 37 CH3    30.330000   35.680000   20.932000 C     5 NME    -0.1490 ****
 38 HH31   29.251000   35.519000   20.962000 H     5 NME     0.0976 ****
 39 HH32   30.532000   36.716000   20.660000 H     5 NME     0.0976 ****
 40 HH33   30.763000   35.019000   20.178000 H     5 NME     0.0976 ****
@<TRIPOS>BOND
    1     5     6 1
    2     5     7 1
    3     2     3 1
    4     2     4 1
    5     2     5 1
    6     1     2 1
    7    12    13 1
    8    12    14 1
    9     9    10 1
   10     9    11 1
   11     9    12 1
   12     7     8 1
   13     7     9 1
   14    22    23 1
   15    22    24 1
   16    18    19 1
   17    18    20 1
   18    18    21 1
   19    16    17 1
   20    16    18 1
   21    16    22 1
   22    14    15 1
   23    14    16 1
   24    33    34 1
   25    33    35 1
   26    31    32 1
   27    28    29 1
   28    28    30 1
   29    28    31 1
   30    26    27 1
   31    26    28 1
   32    26    33 1
   33    24    25 1
   34    24    26 1
   35    37    38 1
   36    37    39 1
   37    37    40 1
   38    35    36 1
   39    35    37 1
@<TRIPOS>SUBSTRUCTURE
      1  ACE              1 ****               0 ****  **** 
      2  GLY              7 ****               0 ****  **** 
      3  ALA             14 ****               0 ****  **** 
      4  SER             24 ****               0 ****  **** 
      5  NME             35 ****               0 ****  **** 
