@<TRIPOS>MOLECULE
default_name
   40    39     5     0     1 
SMALL
USER_CHARGES
@<TRIPOS>ATOM
  1 H1     26.897000   32.260000   21.852000 H     1 ACE     0.1123 ****
  2 CH3    27.671000   31.552000   21.560000 C     1 ACE    -0.3662 ****
  3 H2     28.521000   32.101000   21.158000 H     1 ACE     0.1123 ****
  4 H3     27.281000   30.866000   20.811000 H     1 ACE     0.1123 ****
  5 C      28.107000   30.775000   22.778000 C     1 ACE     0.5972 ****
  6 O      27.515000   30.907000   23.842000 O     1 ACE    -0.5679 ****
  7 N      29.141000   29.947000   22.627000 N     2 GLY    -0.4157 ****
  8 H      29.595000   29.919000   21.728000 H     2 GLY     0.2719 ****
  9 CA     29.697000   29.127000   23.709000 C     2 GLY    -0.0252 ****
 10 HA2    28.888000   28.638000   24.253000 H     2 GLY     0.0698 ****
 11 HA3    30.340000   28.356000   23.285000 H     2 GLY     0.0698 ****
 12 C      30.530000   29.956000   24.689000 C     2 GLY     0.5973 ****
 13 O      31.726000   30.127000   24.474000 O     2 GLY    -0.5679 ****
 14 N      29.888000   30.489000   25.736000 N     3 ALA    -0.4157 ****
 15 H      28.898000   30.307000   25.805000 H     3 ALA     0.2719 ****
 16 CA     30.464000   31.398000   26.739000 C     3 ALA     0.0337 ****
 17 HA     29.628000   31.853000   27.270000 H     3 ALA     0.0823 ****
 18 CB     31.252000   30.569000   27.766000 C     3 ALA    -0.1825 ****
 19 HB1    32.127000   30.123000   27.289000 H     3 ALA     0.0603 ****
 20 HB2    31.586000   31.213000   28.580000 H     3 ALA     0.0603 ****
 21 HB3    30.621000   29.780000   28.175000 H     3 ALA     0.0603 ****
 22 C      31.269000   32.581000   26.143000 C     3 ALA     0.5973 ****
 23 O      32.211000   33.079000   26.757000 O     3 ALA    -0.5679 ****
 24 N      30.888000   33.045000   24.948000 N     4 SER    -0.4157 ****
 25 H      30.087000   32.618000   24.503000 H     4 SER     0.2719 ****
 26 CA     31.590000   34.076000   24.177000 C     4 SER    -0.0249 ****
 27 HA     31.837000   34.908000   24.836000 H     4 SER     0.0843 ****
 28 CB     32.896000   33.493000   23.619000 C     4 SER     0.2117 ****
 29 HB2    33.490000   33.088000   24.440000 H     4 SER     0.0352 ****
 30 HB3    32.667000   32.685000   22.922000 H     4 SER     0.0352 ****
 31 OG     33.651000   34.493000   22.961000 O     4 SER    -0.6546 ****
 32 HG     34.524000   34.131000   22.777000 H     4 SER     0.4275 ****
 33 C      30.702000   34.595000   23.037000 C     4 SER     0.5973 ****
 34 O      29.735000   33.934000   22.654000 O     4 SER    -0.5679 ****
 35 N      31.024000   35.773000   22.492000 N     5 NME    -0.4157 ****
 36 H      31.889000   36.195000   22.802000 H     5 NME     0.2719 ****
 37 CH3    30.277000   36.421000   21.416000 C     5 NME    -0.1490 ****
 38 HH31   29.236000   36.552000   21.719000 H     5 NME     0.0976 ****
 39 HH32   30.712000   37.394000   21.189000 H     5 NME     0.0976 ****
 40 HH33   30.305000   35.795000   20.522000 H     5 NME     0.0976 ****
@<TRIPOS>BOND
    1     5     6 1
    2     5     7 1
    3     2     3 1
    4     2     4 1
    5     2     5 1
    6     1     2 1
    7    12    13 1
    8    12    14 1
    9     9    10 1
   10     9    11 1
   11     9    12 1
   12     7     8 1
   13     7     9 1
   14    22    23 1
   15    22    24 1
   16    18    19 1
   17    18    20 1
   18    18    21 1
   19    16    17 1
   20    16    18 1
   21    16    22 1
   22    14    15 1
   23    14    16 1
   24    33    34 1
   25    33    35 1
   26    31    32 1
   27    28    29 1
   28    28    30 1
   29    28    31 1
   30    26    27 1
   31    26    28 1
   32    26    33 1
   33    24    25 1
   34    24    26 1
   35    37    38 1
   36    37    39 1
   37    37    40 1
   38    35    36 1
   39    35    37 1
@<TRIPOS>SUBSTRUCTURE
      1  ACE              1 ****               0 ****  **** 
      2  GLY              7 ****               0 ****  **** 
      3  ALA             14 ****               0 ****  **** 
      4  SER             24 ****               0 ****  **** 
      5  NME             35 ****               0 ****  **** 
