@<TRIPOS>MOLECULE
default_name
   40    39     5     0     1 
SMALL
USER_CHARGES
@<TRIPOS>ATOM
  1 H1     29.199000   27.072000   21.704000 H     1 ACE     0.1123 ****
  2 CH3    29.020000   28.144000   21.746000 C     1 ACE    -0.3662 ****
  3 H2     28.351000   28.437000   20.938000 H     1 ACE     0.1123 ****
  4 H3     29.961000   28.685000   21.653000 H     1 ACE     0.1123 ****
  5 C      28.377000   28.498000   23.066000 C     1 ACE     0.5972 ****
  6 O      27.289000   29.059000   23.090000 O     1 ACE    -0.5679 ****
  7 N      29.056000   28.170000   24.165000 N     2 GLY    -0.4157 ****
  8 H      29.959000   27.741000   24.047000 H     2 GLY     0.2719 ****
  9 CA     28.665000   28.560000   25.524000 C     2 GLY    -0.0252 ****
 10 HA2    27.578000   28.567000   25.614000 H     2 GLY     0.0698 ****
 11 HA3    29.066000   27.841000   26.237000 H     2 GLY     0.0698 ****
 12 C      29.205000   29.946000   25.880000 C     2 GLY     0.5973 ****
 13 O      30.209000   30.036000   26.579000 O     2 GLY    -0.5679 ****
 14 N      28.561000   30.996000   25.357000 N     3 ALA    -0.4157 ****
 15 H      27.757000   30.792000   24.785000 H     3 ALA     0.2719 ****
 16 CA     29.043000   32.382000   25.335000 C     3 ALA     0.0337 ****
 17 HA     28.209000   32.976000   24.960000 H     3 ALA     0.0823 ****
 18 CB     29.319000   32.919000   26.752000 C     3 ALA    -0.1825 ****
 19 HB1    30.244000   32.495000   27.146000 H     3 ALA     0.0603 ****
 20 HB2    29.420000   34.004000   26.727000 H     3 ALA     0.0603 ****
 21 HB3    28.494000   32.659000   27.415000 H     3 ALA     0.0603 ****
 22 C      30.177000   32.604000   24.306000 C     3 ALA     0.5973 ****
 23 O      30.592000   31.687000   23.597000 O     3 ALA    -0.5679 ****
 24 N      30.644000   33.849000   24.182000 N     4 SER    -0.4157 ****
 25 H      30.289000   34.564000   24.804000 H     4 SER     0.2719 ****
 26 CA     31.766000   34.250000   23.323000 C     4 SER    -0.0249 ****
 27 HA     32.548000   33.493000   23.389000 H     4 SER     0.0843 ****
 28 CB     31.305000   34.334000   21.862000 C     4 SER     0.2117 ****
 29 HB2    30.843000   33.388000   21.576000 H     4 SER     0.0352 ****
 30 HB3    30.569000   35.133000   21.757000 H     4 SER     0.0352 ****
 31 OG     32.402000   34.582000   21.002000 O     4 SER    -0.6546 ****
 32 HG     32.103000   34.482000   20.093000 H     4 SER     0.4275 ****
 33 C      32.354000   35.587000   23.803000 C     4 SER     0.5973 ****
 34 O      31.729000   36.280000   24.607000 O     4 SER    -0.5679 ****
 35 N      33.550000   35.946000   23.325000 N     5 NME    -0.4157 ****
 36 H      33.944000   35.359000   22.603000 H     5 NME     0.2719 ****
 37 CH3    34.259000   37.168000   23.700000 C     5 NME    -0.1490 ****
 38 HH31   34.434000   37.176000   24.777000 H     5 NME     0.0976 ****
 39 HH32   35.215000   37.224000   23.178000 H     5 NME     0.0976 ****
 40 HH33   33.654000   38.038000   23.438000 H     5 NME     0.0976 ****
@<TRIPOS>BOND
    1     5     6 1
    2     5     7 1
    3     2     3 1
    4     2     4 1
    5     2     5 1
    6     1     2 1
    7    12    13 1
    8    12    14 1
    9     9    10 1
   10     9    11 1
   11     9    12 1
   12     7     8 1
   13     7     9 1
   14    22    23 1
   15    22    24 1
   16    18    19 1
   17    18    20 1
   18    18    21 1
   19    16    17 1
   20    16    18 1
   21    16    22 1
   22    14    15 1
   23    14    16 1
   24    33    34 1
   25    33    35 1
   26    31    32 1
   27    28    29 1
   28    28    30 1
   29    28    31 1
   30    26    27 1
   31    26    28 1
   32    26    33 1
   33    24    25 1
   34    24    26 1
   35    37    38 1
   36    37    39 1
   37    37    40 1
   38    35    36 1
   39    35    37 1
@<TRIPOS>SUBSTRUCTURE
      1  ACE              1 ****               0 ****  **** 
      2  GLY              7 ****               0 ****  **** 
      3  ALA             14 ****               0 ****  **** 
      4  SER             24 ****               0 ****  **** 
      5  NME             35 ****               0 ****  **** 
