@<TRIPOS>MOLECULE
default_name
   40    39     5     0     1 
SMALL
USER_CHARGES
@<TRIPOS>ATOM
  1 H1     28.569000   30.726000   21.017000 H     1 ACE     0.1123 ****
  2 CH3    29.115000   29.886000   21.444000 C     1 ACE    -0.3662 ****
  3 H2     30.180000   30.114000   21.468000 H     1 ACE     0.1123 ****
  4 H3     28.938000   28.992000   20.850000 H     1 ACE     0.1123 ****
  5 C      28.635000   29.656000   22.857000 C     1 ACE     0.5972 ****
  6 O      27.809000   30.412000   23.357000 O     1 ACE    -0.5679 ****
  7 N      29.161000   28.615000   23.503000 N     2 GLY    -0.4157 ****
  8 H      29.873000   28.081000   23.032000 H     2 GLY     0.2719 ****
  9 CA     28.962000   28.368000   24.934000 C     2 GLY    -0.0252 ****
 10 HA2    27.905000   28.450000   25.184000 H     2 GLY     0.0698 ****
 11 HA3    29.308000   27.365000   25.184000 H     2 GLY     0.0698 ****
 12 C      29.764000   29.376000   25.756000 C     2 GLY     0.5973 ****
 13 O      30.916000   29.113000   26.087000 O     2 GLY    -0.5679 ****
 14 N      29.143000   30.516000   26.079000 N     3 ALA    -0.4157 ****
 15 H      28.170000   30.547000   25.816000 H     3 ALA     0.2719 ****
 16 CA     29.791000   31.834000   26.120000 C     3 ALA     0.0337 ****
 17 HA     28.984000   32.566000   26.141000 H     3 ALA     0.0823 ****
 18 CB     30.561000   31.995000   27.439000 C     3 ALA    -0.1825 ****
 19 HB1    31.413000   31.313000   27.460000 H     3 ALA     0.0603 ****
 20 HB2    30.928000   33.018000   27.532000 H     3 ALA     0.0603 ****
 21 HB3    29.906000   31.775000   28.283000 H     3 ALA     0.0603 ****
 22 C      30.659000   32.186000   24.883000 C     3 ALA     0.5973 ****
 23 O      31.186000   31.339000   24.163000 O     3 ALA    -0.5679 ****
 24 N      30.727000   33.484000   24.574000 N     4 SER    -0.4157 ****
 25 H      30.299000   34.157000   25.195000 H     4 SER     0.2719 ****
 26 CA     31.469000   34.043000   23.437000 C     4 SER    -0.0249 ****
 27 HA     32.419000   33.515000   23.340000 H     4 SER     0.0843 ****
 28 CB     30.670000   33.831000   22.144000 C     4 SER     0.2117 ****
 29 HB2    30.425000   32.773000   22.042000 H     4 SER     0.0352 ****
 30 HB3    29.743000   34.404000   22.192000 H     4 SER     0.0352 ****
 31 OG     31.421000   34.236000   21.014000 O     4 SER    -0.6546 ****
 32 HG     30.929000   34.000000   20.222000 H     4 SER     0.4275 ****
 33 C      31.770000   35.531000   23.672000 C     4 SER     0.5973 ****
 34 O      31.188000   36.143000   24.569000 O     4 SER    -0.5679 ****
 35 N      32.679000   36.112000   22.882000 N     5 NME    -0.4157 ****
 36 H      33.037000   35.556000   22.118000 H     5 NME     0.2719 ****
 37 CH3    33.099000   37.508000   22.989000 C     5 NME    -0.1490 ****
 38 HH31   33.513000   37.693000   23.982000 H     5 NME     0.0976 ****
 39 HH32   33.855000   37.733000   22.236000 H     5 NME     0.0976 ****
 40 HH33   32.238000   38.163000   22.842000 H     5 NME     0.0976 ****
@<TRIPOS>BOND
    1     5     6 1
    2     5     7 1
    3     2     3 1
    4     2     4 1
    5     2     5 1
    6     1     2 1
    7    12    13 1
    8    12    14 1
    9     9    10 1
   10     9    11 1
   11     9    12 1
   12     7     8 1
   13     7     9 1
   14    22    23 1
   15    22    24 1
   16    18    19 1
   17    18    20 1
   18    18    21 1
   19    16    17 1
   20    16    18 1
   21    16    22 1
   22    14    15 1
   23    14    16 1
   24    33    34 1
   25    33    35 1
   26    31    32 1
   27    28    29 1
   28    28    30 1
   29    28    31 1
   30    26    27 1
   31    26    28 1
   32    26    33 1
   33    24    25 1
   34    24    26 1
   35    37    38 1
   36    37    39 1
   37    37    40 1
   38    35    36 1
   39    35    37 1
@<TRIPOS>SUBSTRUCTURE
      1  ACE              1 ****               0 ****  **** 
      2  GLY              7 ****               0 ****  **** 
      3  ALA             14 ****               0 ****  **** 
      4  SER             24 ****               0 ****  **** 
      5  NME             35 ****               0 ****  **** 
