@<TRIPOS>MOLECULE
default_name
   40    39     5     0     1 
SMALL
USER_CHARGES
@<TRIPOS>ATOM
  1 H1     25.602000   27.862000   24.681000 H     1 ACE     0.1123 ****
  2 CH3    26.475000   27.667000   24.060000 C     1 ACE    -0.3662 ****
  3 H2     26.165000   27.176000   23.139000 H     1 ACE     0.1123 ****
  4 H3     27.174000   27.033000   24.603000 H     1 ACE     0.1123 ****
  5 C      27.143000   28.980000   23.729000 C     1 ACE     0.5972 ****
  6 O      26.681000   30.032000   24.153000 O     1 ACE    -0.5679 ****
  7 N      28.236000   28.923000   22.970000 N     2 GLY    -0.4157 ****
  8 H      28.569000   28.018000   22.679000 H     2 GLY     0.2719 ****
  9 CA     29.030000   30.099000   22.603000 C     2 GLY    -0.0252 ****
 10 HA2    29.698000   29.843000   21.781000 H     2 GLY     0.0698 ****
 11 HA3    28.368000   30.899000   22.268000 H     2 GLY     0.0698 ****
 12 C      29.881000   30.607000   23.769000 C     2 GLY     0.5973 ****
 13 O      31.018000   30.174000   23.922000 O     2 GLY    -0.5679 ****
 14 N      29.347000   31.555000   24.546000 N     3 ALA    -0.4157 ****
 15 H      28.396000   31.821000   24.334000 H     3 ALA     0.2719 ****
 16 CA     29.889000   32.043000   25.826000 C     3 ALA     0.0337 ****
 17 HA     29.047000   32.547000   26.303000 H     3 ALA     0.0823 ****
 18 CB     30.244000   30.897000   26.788000 C     3 ALA    -0.1825 ****
 19 HB1    31.157000   30.397000   26.462000 H     3 ALA     0.0603 ****
 20 HB2    30.411000   31.300000   27.788000 H     3 ALA     0.0603 ****
 21 HB3    29.427000   30.176000   26.829000 H     3 ALA     0.0603 ****
 22 C      30.945000   33.164000   25.703000 C     3 ALA     0.5973 ****
 23 O      31.471000   33.639000   26.706000 O     3 ALA    -0.5679 ****
 24 N      31.242000   33.604000   24.478000 N     4 SER    -0.4157 ****
 25 H      30.770000   33.177000   23.694000 H     4 SER     0.2719 ****
 26 CA     32.173000   34.691000   24.156000 C     4 SER    -0.0249 ****
 27 HA     32.041000   35.497000   24.879000 H     4 SER     0.0843 ****
 28 CB     33.615000   34.180000   24.268000 C     4 SER     0.2117 ****
 29 HB2    33.762000   33.735000   25.253000 H     4 SER     0.0352 ****
 30 HB3    33.792000   33.417000   23.508000 H     4 SER     0.0352 ****
 31 OG     34.542000   35.239000   24.105000 O     4 SER    -0.6546 ****
 32 HG     35.415000   34.912000   24.346000 H     4 SER     0.4275 ****
 33 C      31.877000   35.249000   22.754000 C     4 SER     0.5973 ****
 34 O      31.097000   34.657000   22.005000 O     4 SER    -0.5679 ****
 35 N      32.480000   36.389000   22.401000 N     5 NME    -0.4157 ****
 36 H      33.172000   36.751000   23.045000 H     5 NME     0.2719 ****
 37 CH3    32.290000   37.067000   21.121000 C     5 NME    -0.1490 ****
 38 HH31   31.236000   37.321000   20.991000 H     5 NME     0.0976 ****
 39 HH32   32.888000   37.979000   21.085000 H     5 NME     0.0976 ****
 40 HH33   32.592000   36.405000   20.307000 H     5 NME     0.0976 ****
@<TRIPOS>BOND
    1     5     6 1
    2     5     7 1
    3     2     3 1
    4     2     4 1
    5     2     5 1
    6     1     2 1
    7    12    13 1
    8    12    14 1
    9     9    10 1
   10     9    11 1
   11     9    12 1
   12     7     8 1
   13     7     9 1
   14    22    23 1
   15    22    24 1
   16    18    19 1
   17    18    20 1
   18    18    21 1
   19    16    17 1
   20    16    18 1
   21    16    22 1
   22    14    15 1
   23    14    16 1
   24    33    34 1
   25    33    35 1
   26    31    32 1
   27    28    29 1
   28    28    30 1
   29    28    31 1
   30    26    27 1
   31    26    28 1
   32    26    33 1
   33    24    25 1
   34    24    26 1
   35    37    38 1
   36    37    39 1
   37    37    40 1
   38    35    36 1
   39    35    37 1
@<TRIPOS>SUBSTRUCTURE
      1  ACE              1 ****               0 ****  **** 
      2  GLY              7 ****               0 ****  **** 
      3  ALA             14 ****               0 ****  **** 
      4  SER             24 ****               0 ****  **** 
      5  NME             35 ****               0 ****  **** 
