@<TRIPOS>MOLECULE
default_name
   40    39     5     0     1 
SMALL
USER_CHARGES
@<TRIPOS>ATOM
  1 H1     26.617000   25.175000   25.681000 H     1 ACE     0.1123 ****
  2 CH3    26.463000   26.229000   25.456000 C     1 ACE    -0.3662 ****
  3 H2     26.239000   26.770000   26.373000 H     1 ACE     0.1123 ****
  4 H3     25.642000   26.337000   24.750000 H     1 ACE     0.1123 ****
  5 C      27.726000   26.787000   24.843000 C     1 ACE     0.5972 ****
  6 O      28.701000   26.067000   24.677000 O     1 ACE    -0.5679 ****
  7 N      27.707000   28.074000   24.505000 N     2 GLY    -0.4157 ****
  8 H      26.868000   28.612000   24.666000 H     2 GLY     0.2719 ****
  9 CA     28.838000   28.781000   23.902000 C     2 GLY    -0.0252 ****
 10 HA2    29.688000   28.749000   24.584000 H     2 GLY     0.0698 ****
 11 HA3    29.123000   28.280000   22.977000 H     2 GLY     0.0698 ****
 12 C      28.515000   30.246000   23.589000 C     2 GLY     0.5973 ****
 13 O      27.399000   30.690000   23.849000 O     2 GLY    -0.5679 ****
 14 N      29.507000   30.943000   23.018000 N     3 ALA    -0.4157 ****
 15 H      30.370000   30.430000   22.900000 H     3 ALA     0.2719 ****
 16 CA     29.662000   32.383000   22.716000 C     3 ALA     0.0337 ****
 17 HA     29.561000   32.532000   21.641000 H     3 ALA     0.0823 ****
 18 CB     28.604000   33.256000   23.427000 C     3 ALA    -0.1825 ****
 19 HB1    28.643000   33.096000   24.506000 H     3 ALA     0.0603 ****
 20 HB2    28.765000   34.313000   23.215000 H     3 ALA     0.0603 ****
 21 HB3    27.608000   33.011000   23.057000 H     3 ALA     0.0603 ****
 22 C      31.098000   32.808000   23.119000 C     3 ALA     0.5973 ****
 23 O      31.965000   31.953000   23.297000 O     3 ALA    -0.5679 ****
 24 N      31.370000   34.110000   23.245000 N     4 SER    -0.4157 ****
 25 H      30.620000   34.777000   23.119000 H     4 SER     0.2719 ****
 26 CA     32.646000   34.671000   23.713000 C     4 SER    -0.0249 ****
 27 HA     33.015000   34.064000   24.541000 H     4 SER     0.0843 ****
 28 CB     33.686000   34.624000   22.587000 C     4 SER     0.2117 ****
 29 HB2    33.758000   33.604000   22.206000 H     4 SER     0.0352 ****
 30 HB3    33.376000   35.283000   21.774000 H     4 SER     0.0352 ****
 31 OG     34.958000   35.021000   23.063000 O     4 SER    -0.6546 ****
 32 HG     35.611000   34.837000   22.380000 H     4 SER     0.4275 ****
 33 C      32.439000   36.104000   24.227000 C     4 SER     0.5973 ****
 34 O      31.386000   36.696000   23.989000 O     4 SER    -0.5679 ****
 35 N      33.428000   36.659000   24.937000 N     5 NME    -0.4157 ****
 36 H      34.289000   36.133000   25.003000 H     5 NME     0.2719 ****
 37 CH3    33.379000   37.999000   25.519000 C     5 NME    -0.1490 ****
 38 HH31   32.536000   38.070000   26.209000 H     5 NME     0.0976 ****
 39 HH32   34.305000   38.210000   26.056000 H     5 NME     0.0976 ****
 40 HH33   33.245000   38.739000   24.727000 H     5 NME     0.0976 ****
@<TRIPOS>BOND
    1     5     6 1
    2     5     7 1
    3     2     3 1
    4     2     4 1
    5     2     5 1
    6     1     2 1
    7    12    13 1
    8    12    14 1
    9     9    10 1
   10     9    11 1
   11     9    12 1
   12     7     8 1
   13     7     9 1
   14    22    23 1
   15    22    24 1
   16    18    19 1
   17    18    20 1
   18    18    21 1
   19    16    17 1
   20    16    18 1
   21    16    22 1
   22    14    15 1
   23    14    16 1
   24    33    34 1
   25    33    35 1
   26    31    32 1
   27    28    29 1
   28    28    30 1
   29    28    31 1
   30    26    27 1
   31    26    28 1
   32    26    33 1
   33    24    25 1
   34    24    26 1
   35    37    38 1
   36    37    39 1
   37    37    40 1
   38    35    36 1
   39    35    37 1
@<TRIPOS>SUBSTRUCTURE
      1  ACE              1 ****               0 ****  **** 
      2  GLY              7 ****               0 ****  **** 
      3  ALA             14 ****               0 ****  **** 
      4  SER             24 ****               0 ****  **** 
      5  NME             35 ****               0 ****  **** 
