@<TRIPOS>MOLECULE
default_name
   40    39     5     0     1 
SMALL
USER_CHARGES
@<TRIPOS>ATOM
  1 H1     26.304000   32.902000   22.194000 H     1 ACE     0.1123 ****
  2 CH3    27.314000   32.495000   22.180000 C     1 ACE    -0.3662 ****
  3 H2     28.019000   33.253000   22.512000 H     1 ACE     0.1123 ****
  4 H3     27.564000   32.170000   21.172000 H     1 ACE     0.1123 ****
  5 C      27.378000   31.315000   23.121000 C     1 ACE     0.5972 ****
  6 O      26.429000   31.058000   23.845000 O     1 ACE    -0.5679 ****
  7 N      28.508000   30.609000   23.120000 N     2 GLY    -0.4157 ****
  8 H      29.268000   30.947000   22.543000 H     2 GLY     0.2719 ****
  9 CA     28.767000   29.472000   24.022000 C     2 GLY    -0.0252 ****
 10 HA2    27.830000   28.953000   24.230000 H     2 GLY     0.0698 ****
 11 HA3    29.438000   28.773000   23.525000 H     2 GLY     0.0698 ****
 12 C      29.399000   29.856000   25.369000 C     2 GLY     0.5973 ****
 13 O      29.629000   28.980000   26.195000 O     2 GLY    -0.5679 ****
 14 N      29.706000   31.147000   25.542000 N     3 ALA    -0.4157 ****
 15 H      29.437000   31.739000   24.768000 H     3 ALA     0.2719 ****
 16 CA     30.375000   31.850000   26.650000 C     3 ALA     0.0337 ****
 17 HA     29.630000   32.209000   27.362000 H     3 ALA     0.0823 ****
 18 CB     31.410000   30.977000   27.388000 C     3 ALA    -0.1825 ****
 19 HB1    32.073000   30.478000   26.681000 H     3 ALA     0.0603 ****
 20 HB2    32.000000   31.599000   28.062000 H     3 ALA     0.0603 ****
 21 HB3    30.897000   30.225000   27.988000 H     3 ALA     0.0603 ****
 22 C      31.082000   33.066000   26.028000 C     3 ALA     0.5973 ****
 23 O      30.718000   34.208000   26.290000 O     3 ALA    -0.5679 ****
 24 N      32.023000   32.806000   25.115000 N     4 SER    -0.4157 ****
 25 H      32.234000   31.833000   24.958000 H     4 SER     0.2719 ****
 26 CA     32.365000   33.743000   24.038000 C     4 SER    -0.0249 ****
 27 HA     32.323000   34.761000   24.427000 H     4 SER     0.0843 ****
 28 CB     33.796000   33.488000   23.557000 C     4 SER     0.2117 ****
 29 HB2    34.473000   33.528000   24.412000 H     4 SER     0.0352 ****
 30 HB3    33.857000   32.498000   23.100000 H     4 SER     0.0352 ****
 31 OG     34.180000   34.471000   22.616000 O     4 SER    -0.6546 ****
 32 HG     35.105000   34.335000   22.384000 H     4 SER     0.4275 ****
 33 C      31.348000   33.632000   22.886000 C     4 SER     0.5973 ****
 34 O      30.654000   32.617000   22.762000 O     4 SER    -0.5679 ****
 35 N      31.260000   34.665000   22.042000 N     5 NME    -0.4157 ****
 36 H      31.919000   35.419000   22.178000 H     5 NME     0.2719 ****
 37 CH3    30.339000   34.747000   20.910000 C     5 NME    -0.1490 ****
 38 HH31   29.337000   34.993000   21.266000 H     5 NME     0.0976 ****
 39 HH32   30.670000   35.518000   20.214000 H     5 NME     0.0976 ****
 40 HH33   30.304000   33.789000   20.388000 H     5 NME     0.0976 ****
@<TRIPOS>BOND
    1     5     6 1
    2     5     7 1
    3     2     3 1
    4     2     4 1
    5     2     5 1
    6     1     2 1
    7    12    13 1
    8    12    14 1
    9     9    10 1
   10     9    11 1
   11     9    12 1
   12     7     8 1
   13     7     9 1
   14    22    23 1
   15    22    24 1
   16    18    19 1
   17    18    20 1
   18    18    21 1
   19    16    17 1
   20    16    18 1
   21    16    22 1
   22    14    15 1
   23    14    16 1
   24    33    34 1
   25    33    35 1
   26    31    32 1
   27    28    29 1
   28    28    30 1
   29    28    31 1
   30    26    27 1
   31    26    28 1
   32    26    33 1
   33    24    25 1
   34    24    26 1
   35    37    38 1
   36    37    39 1
   37    37    40 1
   38    35    36 1
   39    35    37 1
@<TRIPOS>SUBSTRUCTURE
      1  ACE              1 ****               0 ****  **** 
      2  GLY              7 ****               0 ****  **** 
      3  ALA             14 ****               0 ****  **** 
      4  SER             24 ****               0 ****  **** 
      5  NME             35 ****               0 ****  **** 
