@<TRIPOS>MOLECULE
default_name
   40    39     5     0     1 
SMALL
USER_CHARGES
@<TRIPOS>ATOM
  1 H1     26.416000   24.969000   23.226000 H     1 ACE     0.1123 ****
  2 CH3    26.395000   26.051000   23.100000 C     1 ACE    -0.3662 ****
  3 H2     25.467000   26.449000   23.505000 H     1 ACE     0.1123 ****
  4 H3     26.477000   26.298000   22.044000 H     1 ACE     0.1123 ****
  5 C      27.563000   26.652000   23.846000 C     1 ACE     0.5972 ****
  6 O      28.340000   25.931000   24.458000 O     1 ACE    -0.5679 ****
  7 N      27.687000   27.975000   23.796000 N     2 GLY    -0.4157 ****
  8 H      27.010000   28.512000   23.273000 H     2 GLY     0.2719 ****
  9 CA     28.755000   28.726000   24.458000 C     2 GLY    -0.0252 ****
 10 HA2    28.724000   28.527000   25.530000 H     2 GLY     0.0698 ****
 11 HA3    29.721000   28.391000   24.077000 H     2 GLY     0.0698 ****
 12 C      28.635000   30.235000   24.234000 C     2 GLY     0.5973 ****
 13 O      27.723000   30.696000   23.548000 O     2 GLY    -0.5679 ****
 14 N      29.557000   31.004000   24.815000 N     3 ALA    -0.4157 ****
 15 H      30.312000   30.556000   25.314000 H     3 ALA     0.2719 ****
 16 CA     29.658000   32.456000   24.654000 C     3 ALA     0.0337 ****
 17 HA     29.061000   32.764000   23.794000 H     3 ALA     0.0823 ****
 18 CB     29.072000   33.128000   25.903000 C     3 ALA    -0.1825 ****
 19 HB1    29.656000   32.854000   26.783000 H     3 ALA     0.0603 ****
 20 HB2    29.090000   34.212000   25.787000 H     3 ALA     0.0603 ****
 21 HB3    28.038000   32.808000   26.042000 H     3 ALA     0.0603 ****
 22 C      31.111000   32.891000   24.378000 C     3 ALA     0.5973 ****
 23 O      32.045000   32.115000   24.571000 O     3 ALA    -0.5679 ****
 24 N      31.302000   34.140000   23.948000 N     4 SER    -0.4157 ****
 25 H      30.501000   34.749000   23.847000 H     4 SER     0.2719 ****
 26 CA     32.613000   34.766000   23.729000 C     4 SER    -0.0249 ****
 27 HA     33.288000   34.463000   24.531000 H     4 SER     0.0843 ****
 28 CB     33.208000   34.282000   22.400000 C     4 SER     0.2117 ****
 29 HB2    33.219000   33.191000   22.388000 H     4 SER     0.0352 ****
 30 HB3    32.592000   34.638000   21.573000 H     4 SER     0.0352 ****
 31 OG     34.534000   34.751000   22.242000 O     4 SER    -0.6546 ****
 32 HG     34.926000   34.307000   21.483000 H     4 SER     0.4275 ****
 33 C      32.488000   36.298000   23.767000 C     4 SER     0.5973 ****
 34 O      31.374000   36.823000   23.749000 O     4 SER    -0.5679 ****
 35 N      33.615000   37.013000   23.834000 N     5 NME    -0.4157 ****
 36 H      34.483000   36.499000   23.751000 H     5 NME     0.2719 ****
 37 CH3    33.670000   38.472000   23.903000 C     5 NME    -0.1490 ****
 38 HH31   33.131000   38.819000   24.787000 H     5 NME     0.0976 ****
 39 HH32   34.706000   38.808000   23.957000 H     5 NME     0.0976 ****
 40 HH33   33.197000   38.900000   23.017000 H     5 NME     0.0976 ****
@<TRIPOS>BOND
    1     5     6 1
    2     5     7 1
    3     2     3 1
    4     2     4 1
    5     2     5 1
    6     1     2 1
    7    12    13 1
    8    12    14 1
    9     9    10 1
   10     9    11 1
   11     9    12 1
   12     7     8 1
   13     7     9 1
   14    22    23 1
   15    22    24 1
   16    18    19 1
   17    18    20 1
   18    18    21 1
   19    16    17 1
   20    16    18 1
   21    16    22 1
   22    14    15 1
   23    14    16 1
   24    33    34 1
   25    33    35 1
   26    31    32 1
   27    28    29 1
   28    28    30 1
   29    28    31 1
   30    26    27 1
   31    26    28 1
   32    26    33 1
   33    24    25 1
   34    24    26 1
   35    37    38 1
   36    37    39 1
   37    37    40 1
   38    35    36 1
   39    35    37 1
@<TRIPOS>SUBSTRUCTURE
      1  ACE              1 ****               0 ****  **** 
      2  GLY              7 ****               0 ****  **** 
      3  ALA             14 ****               0 ****  **** 
      4  SER             24 ****               0 ****  **** 
      5  NME             35 ****               0 ****  **** 
