@<TRIPOS>MOLECULE
default_name
   39    38     5     0     1 
SMALL
USER_CHARGES
@<TRIPOS>ATOM
  1 H1     28.667000   28.705000   21.006000 H     1 ACE     0.1123 ****
  2 CH3    29.089000   29.622000   21.415000 C     1 ACE    -0.3662 ****
  3 H2     28.848000   30.453000   20.752000 H     1 ACE     0.1123 ****
  4 H3     30.169000   29.524000   21.506000 H     1 ACE     0.1123 ****
  5 C      28.483000   29.890000   22.772000 C     1 ACE     0.5972 ****
  6 O      27.852000   30.922000   22.961000 O     1 ACE    -0.5679 ****
  7 N      28.703000   28.974000   23.719000 N     2 GLY    -0.4157 ****
  8 H      29.256000   28.165000   23.475000 H     2 GLY     0.2719 ****
  9 CA     28.108000   28.999000   25.069000 C     2 GLY    -0.0252 ****
 10 HA2    27.064000   29.301000   24.966000 H     2 GLY     0.0698 ****
 11 HA3    28.124000   27.992000   25.488000 H     2 GLY     0.0698 ****
 12 C      28.752000   29.943000   26.103000 C     2 GLY     0.5973 ****
 13 O      28.566000   29.724000   27.295000 O     2 GLY    -0.5679 ****
 14 N      29.514000   30.950000   25.654000 N     3 ALA    -0.4157 ****
 15 H      29.622000   31.006000   24.658000 H     3 ALA     0.2719 ****
 16 CA     30.105000   32.062000   26.426000 C     3 ALA     0.0337 ****
 17 HA     29.282000   32.656000   26.816000 H     3 ALA     0.0823 ****
 18 CB     30.941000   31.565000   27.629000 C     3 ALA    -0.1825 ****
 19 HB1    31.680000   30.826000   27.312000 H     3 ALA     0.0603 ****
 20 HB2    31.454000   32.411000   28.094000 H     3 ALA     0.0603 ****
 21 HB3    30.285000   31.140000   28.392000 H     3 ALA     0.0603 ****
 22 C      30.924000   33.017000   25.509000 C     3 ALA     0.5973 ****
 23 O      31.959000   33.540000   25.908000 O     3 ALA    -0.5679 ****
 24 N      30.552000   33.152000   24.230000 N     4 ALA    -0.4157 ****
 25 H      29.644000   32.814000   23.958000 H     4 ALA     0.2719 ****
 26 CA     31.379000   33.774000   23.188000 C     4 ALA     0.0337 ****
 27 HA     32.385000   33.361000   23.264000 H     4 ALA     0.0823 ****
 28 CB     30.801000   33.357000   21.832000 C     4 ALA    -0.1825 ****
 29 HB1    29.803000   33.784000   21.715000 H     4 ALA     0.0603 ****
 30 HB2    31.442000   33.720000   21.028000 H     4 ALA     0.0603 ****
 31 HB3    30.739000   32.270000   21.776000 H     4 ALA     0.0603 ****
 32 C      31.526000   35.307000   23.289000 C     4 ALA     0.5973 ****
 33 O      30.677000   35.997000   23.850000 O     4 ALA    -0.5679 ****
 34 N      32.593000   35.830000   22.663000 N     5 NME    -0.4157 ****
 35 H      33.238000   35.190000   22.226000 H     5 NME     0.2719 ****
 36 CH3    32.860000   37.261000   22.536000 C     5 NME    -0.1490 ****
 37 HH31   33.057000   37.688000   23.522000 H     5 NME     0.0976 ****
 38 HH32   33.724000   37.428000   21.890000 H     5 NME     0.0976 ****
 39 HH33   31.988000   37.759000   22.105000 H     5 NME     0.0976 ****
@<TRIPOS>BOND
    1     5     6 1
    2     5     7 1
    3     2     3 1
    4     2     4 1
    5     2     5 1
    6     1     2 1
    7    12    13 1
    8    12    14 1
    9     9    10 1
   10     9    11 1
   11     9    12 1
   12     7     8 1
   13     7     9 1
   14    22    23 1
   15    22    24 1
   16    18    19 1
   17    18    20 1
   18    18    21 1
   19    16    17 1
   20    16    18 1
   21    16    22 1
   22    14    15 1
   23    14    16 1
   24    32    33 1
   25    32    34 1
   26    28    29 1
   27    28    30 1
   28    28    31 1
   29    26    27 1
   30    26    28 1
   31    26    32 1
   32    24    25 1
   33    24    26 1
   34    36    37 1
   35    36    38 1
   36    36    39 1
   37    34    35 1
   38    34    36 1
@<TRIPOS>SUBSTRUCTURE
      1  ACE              1 ****               0 ****  **** 
      2  GLY              7 ****               0 ****  **** 
      3  ALA             14 ****               0 ****  **** 
      4  ALA             24 ****               0 ****  **** 
      5  NME             34 ****               0 ****  **** 
