@<TRIPOS>MOLECULE
default_name
   39    38     5     0     1 
SMALL
USER_CHARGES
@<TRIPOS>ATOM
  1 H1     25.390000   28.705000   23.572000 H     1 ACE     0.1123 ****
  2 CH3    26.308000   28.638000   22.989000 C     1 ACE    -0.3662 ****
  3 H2     26.348000   29.461000   22.278000 H     1 ACE     0.1123 ****
  4 H3     26.331000   27.687000   22.459000 H     1 ACE     0.1123 ****
  5 C      27.489000   28.719000   23.926000 C     1 ACE     0.5972 ****
  6 O      27.314000   28.845000   25.129000 O     1 ACE    -0.5679 ****
  7 N      28.700000   28.670000   23.370000 N     2 GLY    -0.4157 ****
  8 H      28.751000   28.570000   22.369000 H     2 GLY     0.2719 ****
  9 CA     29.964000   28.660000   24.125000 C     2 GLY    -0.0252 ****
 10 HA2    29.852000   27.994000   24.981000 H     2 GLY     0.0698 ****
 11 HA3    30.752000   28.255000   23.489000 H     2 GLY     0.0698 ****
 12 C      30.448000   30.016000   24.664000 C     2 GLY     0.5973 ****
 13 O      31.632000   30.145000   24.957000 O     2 GLY    -0.5679 ****
 14 N      29.581000   31.035000   24.719000 N     3 ALA    -0.4157 ****
 15 H      28.634000   30.830000   24.444000 H     3 ALA     0.2719 ****
 16 CA     29.815000   32.378000   25.264000 C     3 ALA     0.0337 ****
 17 HA     28.814000   32.779000   25.435000 H     3 ALA     0.0823 ****
 18 CB     30.457000   32.368000   26.663000 C     3 ALA    -0.1825 ****
 19 HB1    30.409000   33.369000   27.092000 H     3 ALA     0.0603 ****
 20 HB2    29.914000   31.680000   27.313000 H     3 ALA     0.0603 ****
 21 HB3    31.501000   32.061000   26.611000 H     3 ALA     0.0603 ****
 22 C      30.423000   33.350000   24.240000 C     3 ALA     0.5973 ****
 23 O      29.709000   34.189000   23.700000 O     3 ALA    -0.5679 ****
 24 N      31.730000   33.227000   23.976000 N     4 ALA    -0.4157 ****
 25 H      32.220000   32.496000   24.469000 H     4 ALA     0.2719 ****
 26 CA     32.508000   33.978000   22.976000 C     4 ALA     0.0337 ****
 27 HA     33.542000   33.654000   23.099000 H     4 ALA     0.0823 ****
 28 CB     32.086000   33.524000   21.569000 C     4 ALA    -0.1825 ****
 29 HB1    31.071000   33.862000   21.356000 H     4 ALA     0.0603 ****
 30 HB2    32.761000   33.953000   20.827000 H     4 ALA     0.0603 ****
 31 HB3    32.130000   32.436000   21.497000 H     4 ALA     0.0603 ****
 32 C      32.569000   35.520000   23.129000 C     4 ALA     0.5973 ****
 33 O      33.176000   36.184000   22.292000 O     4 ALA    -0.5679 ****
 34 N      32.004000   36.097000   24.198000 N     5 NME    -0.4157 ****
 35 H      31.490000   35.504000   24.829000 H     5 NME     0.2719 ****
 36 CH3    32.006000   37.536000   24.455000 C     5 NME    -0.1490 ****
 37 HH31   31.498000   37.753000   25.395000 H     5 NME     0.0976 ****
 38 HH32   33.034000   37.900000   24.504000 H     5 NME     0.0976 ****
 39 HH33   31.493000   38.052000   23.641000 H     5 NME     0.0976 ****
@<TRIPOS>BOND
    1     5     6 1
    2     5     7 1
    3     2     3 1
    4     2     4 1
    5     2     5 1
    6     1     2 1
    7    12    13 1
    8    12    14 1
    9     9    10 1
   10     9    11 1
   11     9    12 1
   12     7     8 1
   13     7     9 1
   14    22    23 1
   15    22    24 1
   16    18    19 1
   17    18    20 1
   18    18    21 1
   19    16    17 1
   20    16    18 1
   21    16    22 1
   22    14    15 1
   23    14    16 1
   24    32    33 1
   25    32    34 1
   26    28    29 1
   27    28    30 1
   28    28    31 1
   29    26    27 1
   30    26    28 1
   31    26    32 1
   32    24    25 1
   33    24    26 1
   34    36    37 1
   35    36    38 1
   36    36    39 1
   37    34    35 1
   38    34    36 1
@<TRIPOS>SUBSTRUCTURE
      1  ACE              1 ****               0 ****  **** 
      2  GLY              7 ****               0 ****  **** 
      3  ALA             14 ****               0 ****  **** 
      4  ALA             24 ****               0 ****  **** 
      5  NME             34 ****               0 ****  **** 
