@<TRIPOS>MOLECULE
default_name
   39    38     5     0     1 
SMALL
USER_CHARGES
@<TRIPOS>ATOM
  1 H1     25.351000   27.544000   23.546000 H     1 ACE     0.1123 ****
  2 CH3    26.302000   27.428000   23.028000 C     1 ACE    -0.3662 ****
  3 H2     26.262000   27.949000   22.073000 H     1 ACE     0.1123 ****
  4 H3     26.505000   26.371000   22.869000 H     1 ACE     0.1123 ****
  5 C      27.398000   28.026000   23.878000 C     1 ACE     0.5972 ****
  6 O      27.132000   28.533000   24.961000 O     1 ACE    -0.5679 ****
  7 N      28.635000   27.968000   23.388000 N     2 GLY    -0.4157 ****
  8 H      28.770000   27.559000   22.478000 H     2 GLY     0.2719 ****
  9 CA     29.802000   28.549000   24.059000 C     2 GLY    -0.0252 ****
 10 HA2    29.781000   28.297000   25.120000 H     2 GLY     0.0698 ****
 11 HA3    30.712000   28.133000   23.629000 H     2 GLY     0.0698 ****
 12 C      29.860000   30.071000   23.908000 C     2 GLY     0.5973 ****
 13 O      30.390000   30.564000   22.916000 O     2 GLY    -0.5679 ****
 14 N      29.274000   30.801000   24.863000 N     3 ALA    -0.4157 ****
 15 H      28.771000   30.297000   25.577000 H     3 ALA     0.2719 ****
 16 CA     29.489000   32.233000   25.092000 C     3 ALA     0.0337 ****
 17 HA     28.803000   32.767000   24.434000 H     3 ALA     0.0823 ****
 18 CB     29.097000   32.564000   26.538000 C     3 ALA    -0.1825 ****
 19 HB1    29.758000   32.039000   27.229000 H     3 ALA     0.0603 ****
 20 HB2    29.187000   33.637000   26.706000 H     3 ALA     0.0603 ****
 21 HB3    28.065000   32.261000   26.723000 H     3 ALA     0.0603 ****
 22 C      30.916000   32.726000   24.758000 C     3 ALA     0.5973 ****
 23 O      31.903000   32.118000   25.173000 O     3 ALA    -0.5679 ****
 24 N      31.021000   33.879000   24.094000 N     4 ALA    -0.4157 ****
 25 H      30.180000   34.370000   23.827000 H     4 ALA     0.2719 ****
 26 CA     32.285000   34.501000   23.701000 C     4 ALA     0.0337 ****
 27 HA     33.038000   34.282000   24.460000 H     4 ALA     0.0823 ****
 28 CB     32.741000   33.886000   22.370000 C     4 ALA    -0.1825 ****
 29 HB1    32.004000   34.094000   21.592000 H     4 ALA     0.0603 ****
 30 HB2    33.703000   34.303000   22.073000 H     4 ALA     0.0603 ****
 31 HB3    32.845000   32.804000   22.479000 H     4 ALA     0.0603 ****
 32 C      32.143000   36.031000   23.601000 C     4 ALA     0.5973 ****
 33 O      31.032000   36.551000   23.498000 O     4 ALA    -0.5679 ****
 34 N      33.273000   36.749000   23.621000 N     5 NME    -0.4157 ****
 35 H      34.146000   36.251000   23.700000 H     5 NME     0.2719 ****
 36 CH3    33.317000   38.208000   23.528000 C     5 NME    -0.1490 ****
 37 HH31   32.757000   38.646000   24.357000 H     5 NME     0.0976 ****
 38 HH32   34.349000   38.559000   23.565000 H     5 NME     0.0976 ****
 39 HH33   32.859000   38.531000   22.591000 H     5 NME     0.0976 ****
@<TRIPOS>BOND
    1     5     6 1
    2     5     7 1
    3     2     3 1
    4     2     4 1
    5     2     5 1
    6     1     2 1
    7    12    13 1
    8    12    14 1
    9     9    10 1
   10     9    11 1
   11     9    12 1
   12     7     8 1
   13     7     9 1
   14    22    23 1
   15    22    24 1
   16    18    19 1
   17    18    20 1
   18    18    21 1
   19    16    17 1
   20    16    18 1
   21    16    22 1
   22    14    15 1
   23    14    16 1
   24    32    33 1
   25    32    34 1
   26    28    29 1
   27    28    30 1
   28    28    31 1
   29    26    27 1
   30    26    28 1
   31    26    32 1
   32    24    25 1
   33    24    26 1
   34    36    37 1
   35    36    38 1
   36    36    39 1
   37    34    35 1
   38    34    36 1
@<TRIPOS>SUBSTRUCTURE
      1  ACE              1 ****               0 ****  **** 
      2  GLY              7 ****               0 ****  **** 
      3  ALA             14 ****               0 ****  **** 
      4  ALA             24 ****               0 ****  **** 
      5  NME             34 ****               0 ****  **** 
