@<TRIPOS>MOLECULE
default_name
   39    38     5     0     1 
SMALL
USER_CHARGES
@<TRIPOS>ATOM
  1 H1     28.878000   27.506000   21.630000 H     1 ACE     0.1123 ****
  2 CH3    28.816000   28.588000   21.728000 C     1 ACE    -0.3662 ****
  3 H2     28.333000   29.008000   20.847000 H     1 ACE     0.1123 ****
  4 H3     29.814000   29.011000   21.834000 H     1 ACE     0.1123 ****
  5 C      27.999000   28.937000   22.949000 C     1 ACE     0.5972 ****
  6 O      26.988000   29.617000   22.839000 O     1 ACE    -0.5679 ****
  7 N      28.451000   28.479000   24.116000 N     2 GLY    -0.4157 ****
  8 H      29.309000   27.952000   24.108000 H     2 GLY     0.2719 ****
  9 CA     27.867000   28.793000   25.428000 C     2 GLY    -0.0252 ****
 10 HA2    26.801000   28.994000   25.321000 H     2 GLY     0.0698 ****
 11 HA3    27.989000   27.935000   26.091000 H     2 GLY     0.0698 ****
 12 C      28.527000   30.009000   26.085000 C     2 GLY     0.5973 ****
 13 O      29.089000   29.864000   27.166000 O     2 GLY    -0.5679 ****
 14 N      28.499000   31.153000   25.387000 N     3 ALA    -0.4157 ****
 15 H      27.979000   31.112000   24.527000 H     3 ALA     0.2719 ****
 16 CA     29.286000   32.382000   25.574000 C     3 ALA     0.0337 ****
 17 HA     28.594000   33.187000   25.322000 H     3 ALA     0.0823 ****
 18 CB     29.705000   32.675000   27.024000 C     3 ALA    -0.1825 ****
 19 HB1    30.492000   31.985000   27.332000 H     3 ALA     0.0603 ****
 20 HB2    30.088000   33.693000   27.100000 H     3 ALA     0.0603 ****
 21 HB3    28.848000   32.569000   27.690000 H     3 ALA     0.0603 ****
 22 C      30.422000   32.501000   24.537000 C     3 ALA     0.5973 ****
 23 O      30.951000   31.499000   24.057000 O     3 ALA    -0.5679 ****
 24 N      30.774000   33.735000   24.167000 N     4 ALA    -0.4157 ****
 25 H      30.334000   34.525000   24.617000 H     4 ALA     0.2719 ****
 26 CA     31.832000   34.050000   23.207000 C     4 ALA     0.0337 ****
 27 HA     32.626000   33.307000   23.298000 H     4 ALA     0.0823 ****
 28 CB     31.253000   33.978000   21.786000 C     4 ALA    -0.1825 ****
 29 HB1    30.454000   34.712000   21.671000 H     4 ALA     0.0603 ****
 30 HB2    32.034000   34.183000   21.054000 H     4 ALA     0.0603 ****
 31 HB3    30.853000   32.980000   21.599000 H     4 ALA     0.0603 ****
 32 C      32.440000   35.435000   23.500000 C     4 ALA     0.5973 ****
 33 O      31.818000   36.256000   24.173000 O     4 ALA    -0.5679 ****
 34 N      33.649000   35.693000   22.985000 N     5 NME    -0.4157 ****
 35 H      34.095000   34.972000   22.440000 H     5 NME     0.2719 ****
 36 CH3    34.360000   36.958000   23.166000 C     5 NME    -0.1490 ****
 37 HH31   34.526000   37.139000   24.230000 H     5 NME     0.0976 ****
 38 HH32   35.321000   36.930000   22.651000 H     5 NME     0.0976 ****
 39 HH33   33.761000   37.778000   22.765000 H     5 NME     0.0976 ****
@<TRIPOS>BOND
    1     5     6 1
    2     5     7 1
    3     2     3 1
    4     2     4 1
    5     2     5 1
    6     1     2 1
    7    12    13 1
    8    12    14 1
    9     9    10 1
   10     9    11 1
   11     9    12 1
   12     7     8 1
   13     7     9 1
   14    22    23 1
   15    22    24 1
   16    18    19 1
   17    18    20 1
   18    18    21 1
   19    16    17 1
   20    16    18 1
   21    16    22 1
   22    14    15 1
   23    14    16 1
   24    32    33 1
   25    32    34 1
   26    28    29 1
   27    28    30 1
   28    28    31 1
   29    26    27 1
   30    26    28 1
   31    26    32 1
   32    24    25 1
   33    24    26 1
   34    36    37 1
   35    36    38 1
   36    36    39 1
   37    34    35 1
   38    34    36 1
@<TRIPOS>SUBSTRUCTURE
      1  ACE              1 ****               0 ****  **** 
      2  GLY              7 ****               0 ****  **** 
      3  ALA             14 ****               0 ****  **** 
      4  ALA             24 ****               0 ****  **** 
      5  NME             34 ****               0 ****  **** 
