@<TRIPOS>MOLECULE
default_name
   39    38     5     0     1 
SMALL
USER_CHARGES
@<TRIPOS>ATOM
  1 H1     28.113000   27.594000   21.011000 H     1 ACE     0.1123 ****
  2 CH3    27.952000   28.614000   21.358000 C     1 ACE    -0.3662 ****
  3 H2     27.121000   29.053000   20.810000 H     1 ACE     0.1123 ****
  4 H3     28.856000   29.199000   21.196000 H     1 ACE     0.1123 ****
  5 C      27.625000   28.578000   22.835000 C     1 ACE     0.5972 ****
  6 O      27.509000   27.503000   23.404000 O     1 ACE    -0.5679 ****
  7 N      27.476000   29.754000   23.447000 N     2 GLY    -0.4157 ****
  8 H      27.575000   30.587000   22.888000 H     2 GLY     0.2719 ****
  9 CA     27.068000   29.921000   24.853000 C     2 GLY    -0.0252 ****
 10 HA2    26.086000   30.393000   24.872000 H     2 GLY     0.0698 ****
 11 HA3    26.967000   28.945000   25.330000 H     2 GLY     0.0698 ****
 12 C      28.012000   30.773000   25.717000 C     2 GLY     0.5973 ****
 13 O      27.570000   31.311000   26.727000 O     2 GLY    -0.5679 ****
 14 N      29.272000   30.971000   25.308000 N     3 ALA    -0.4157 ****
 15 H      29.585000   30.499000   24.472000 H     3 ALA     0.2719 ****
 16 CA     30.165000   31.998000   25.867000 C     3 ALA     0.0337 ****
 17 HA     29.557000   32.845000   26.189000 H     3 ALA     0.0823 ****
 18 CB     30.860000   31.418000   27.115000 C     3 ALA    -0.1825 ****
 19 HB1    31.369000   30.484000   26.873000 H     3 ALA     0.0603 ****
 20 HB2    31.582000   32.126000   27.521000 H     3 ALA     0.0603 ****
 21 HB3    30.111000   31.226000   27.886000 H     3 ALA     0.0603 ****
 22 C      31.150000   32.551000   24.806000 C     3 ALA     0.5973 ****
 23 O      31.128000   32.113000   23.655000 O     3 ALA    -0.5679 ****
 24 N      32.015000   33.498000   25.209000 N     4 ALA    -0.4157 ****
 25 H      32.010000   33.717000   26.191000 H     4 ALA     0.2719 ****
 26 CA     32.760000   34.425000   24.333000 C     4 ALA     0.0337 ****
 27 HA     33.225000   35.167000   24.983000 H     4 ALA     0.0823 ****
 28 CB     33.913000   33.674000   23.645000 C     4 ALA    -0.1825 ****
 29 HB1    33.517000   32.924000   22.960000 H     4 ALA     0.0603 ****
 30 HB2    34.537000   34.370000   23.083000 H     4 ALA     0.0603 ****
 31 HB3    34.534000   33.183000   24.395000 H     4 ALA     0.0603 ****
 32 C      31.855000   35.239000   23.364000 C     4 ALA     0.5973 ****
 33 O      30.630000   35.155000   23.425000 O     4 ALA    -0.5679 ****
 34 N      32.447000   36.085000   22.505000 N     5 NME    -0.4157 ****
 35 H      33.452000   36.160000   22.517000 H     5 NME     0.2719 ****
 36 CH3    31.711000   36.862000   21.504000 C     5 NME    -0.1490 ****
 37 HH31   30.992000   37.523000   21.995000 H     5 NME     0.0976 ****
 38 HH32   32.390000   37.460000   20.895000 H     5 NME     0.0976 ****
 39 HH33   31.157000   36.180000   20.856000 H     5 NME     0.0976 ****
@<TRIPOS>BOND
    1     5     6 1
    2     5     7 1
    3     2     3 1
    4     2     4 1
    5     2     5 1
    6     1     2 1
    7    12    13 1
    8    12    14 1
    9     9    10 1
   10     9    11 1
   11     9    12 1
   12     7     8 1
   13     7     9 1
   14    22    23 1
   15    22    24 1
   16    18    19 1
   17    18    20 1
   18    18    21 1
   19    16    17 1
   20    16    18 1
   21    16    22 1
   22    14    15 1
   23    14    16 1
   24    32    33 1
   25    32    34 1
   26    28    29 1
   27    28    30 1
   28    28    31 1
   29    26    27 1
   30    26    28 1
   31    26    32 1
   32    24    25 1
   33    24    26 1
   34    36    37 1
   35    36    38 1
   36    36    39 1
   37    34    35 1
   38    34    36 1
@<TRIPOS>SUBSTRUCTURE
      1  ACE              1 ****               0 ****  **** 
      2  GLY              7 ****               0 ****  **** 
      3  ALA             14 ****               0 ****  **** 
      4  ALA             24 ****               0 ****  **** 
      5  NME             34 ****               0 ****  **** 
