@<TRIPOS>MOLECULE
default_name
   39    38     5     0     1 
SMALL
USER_CHARGES
@<TRIPOS>ATOM
  1 H1     25.972000   31.905000   23.290000 H     1 ACE     0.1123 ****
  2 CH3    26.981000   31.934000   22.882000 C     1 ACE    -0.3662 ****
  3 H2     27.509000   32.807000   23.262000 H     1 ACE     0.1123 ****
  4 H3     26.940000   31.976000   21.796000 H     1 ACE     0.1123 ****
  5 C      27.719000   30.685000   23.303000 C     1 ACE     0.5972 ****
  6 O      27.169000   29.854000   24.013000 O     1 ACE    -0.5679 ****
  7 N      28.978000   30.568000   22.888000 N     2 GLY    -0.4157 ****
  8 H      29.371000   31.357000   22.385000 H     2 GLY     0.2719 ****
  9 CA     29.884000   29.463000   23.238000 C     2 GLY    -0.0252 ****
 10 HA2    29.302000   28.558000   23.421000 H     2 GLY     0.0698 ****
 11 HA3    30.557000   29.273000   22.402000 H     2 GLY     0.0698 ****
 12 C      30.729000   29.750000   24.483000 C     2 GLY     0.5973 ****
 13 O      31.917000   29.443000   24.488000 O     2 GLY    -0.5679 ****
 14 N      30.128000   30.379000   25.501000 N     3 ALA    -0.4157 ****
 15 H      29.122000   30.400000   25.433000 H     3 ALA     0.2719 ****
 16 CA     30.679000   31.379000   26.433000 C     3 ALA     0.0337 ****
 17 HA     29.851000   31.681000   27.075000 H     3 ALA     0.0823 ****
 18 CB     31.715000   30.725000   27.359000 C     3 ALA    -0.1825 ****
 19 HB1    32.606000   30.446000   26.797000 H     3 ALA     0.0603 ****
 20 HB2    31.999000   31.429000   28.142000 H     3 ALA     0.0603 ****
 21 HB3    31.289000   29.834000   27.822000 H     3 ALA     0.0603 ****
 22 C      31.194000   32.695000   25.795000 C     3 ALA     0.5973 ****
 23 O      30.826000   33.763000   26.280000 O     3 ALA    -0.5679 ****
 24 N      31.930000   32.681000   24.678000 N     4 ALA    -0.4157 ****
 25 H      32.295000   31.817000   24.333000 H     4 ALA     0.2719 ****
 26 CA     32.094000   33.849000   23.816000 C     4 ALA     0.0337 ****
 27 HA     32.290000   34.722000   24.441000 H     4 ALA     0.0823 ****
 28 CB     33.311000   33.625000   22.910000 C     4 ALA    -0.1825 ****
 29 HB1    33.146000   32.755000   22.273000 H     4 ALA     0.0603 ****
 30 HB2    33.468000   34.502000   22.281000 H     4 ALA     0.0603 ****
 31 HB3    34.202000   33.462000   23.519000 H     4 ALA     0.0603 ****
 32 C      30.814000   34.114000   22.997000 C     4 ALA     0.5973 ****
 33 O      30.177000   33.178000   22.507000 O     4 ALA    -0.5679 ****
 34 N      30.457000   35.391000   22.818000 N     5 NME    -0.4157 ****
 35 H      31.016000   36.102000   23.264000 H     5 NME     0.2719 ****
 36 CH3    29.280000   35.816000   22.063000 C     5 NME    -0.1490 ****
 37 HH31   28.375000   35.459000   22.559000 H     5 NME     0.0976 ****
 38 HH32   29.247000   36.905000   21.997000 H     5 NME     0.0976 ****
 39 HH33   29.316000   35.397000   21.055000 H     5 NME     0.0976 ****
@<TRIPOS>BOND
    1     5     6 1
    2     5     7 1
    3     2     3 1
    4     2     4 1
    5     2     5 1
    6     1     2 1
    7    12    13 1
    8    12    14 1
    9     9    10 1
   10     9    11 1
   11     9    12 1
   12     7     8 1
   13     7     9 1
   14    22    23 1
   15    22    24 1
   16    18    19 1
   17    18    20 1
   18    18    21 1
   19    16    17 1
   20    16    18 1
   21    16    22 1
   22    14    15 1
   23    14    16 1
   24    32    33 1
   25    32    34 1
   26    28    29 1
   27    28    30 1
   28    28    31 1
   29    26    27 1
   30    26    28 1
   31    26    32 1
   32    24    25 1
   33    24    26 1
   34    36    37 1
   35    36    38 1
   36    36    39 1
   37    34    35 1
   38    34    36 1
@<TRIPOS>SUBSTRUCTURE
      1  ACE              1 ****               0 ****  **** 
      2  GLY              7 ****               0 ****  **** 
      3  ALA             14 ****               0 ****  **** 
      4  ALA             24 ****               0 ****  **** 
      5  NME             34 ****               0 ****  **** 
