@<TRIPOS>MOLECULE
default_name
   39    38     5     0     1 
SMALL
USER_CHARGES
@<TRIPOS>ATOM
  1 H1     27.524000   32.747000   22.124000 H     1 ACE     0.1123 ****
  2 CH3    28.004000   31.809000   21.841000 C     1 ACE    -0.3662 ****
  3 H2     29.016000   32.018000   21.502000 H     1 ACE     0.1123 ****
  4 H3     27.432000   31.332000   21.048000 H     1 ACE     0.1123 ****
  5 C      28.044000   30.902000   23.047000 C     1 ACE     0.5972 ****
  6 O      27.502000   31.239000   24.089000 O     1 ACE    -0.5679 ****
  7 N      28.729000   29.764000   22.922000 N     2 GLY    -0.4157 ****
  8 H      29.142000   29.561000   22.026000 H     2 GLY     0.2719 ****
  9 CA     28.842000   28.739000   23.979000 C     2 GLY    -0.0252 ****
 10 HA2    27.844000   28.529000   24.366000 H     2 GLY     0.0698 ****
 11 HA3    29.231000   27.821000   23.540000 H     2 GLY     0.0698 ****
 12 C      29.733000   29.092000   25.184000 C     2 GLY     0.5973 ****
 13 O      29.950000   28.226000   26.023000 O     2 GLY    -0.5679 ****
 14 N      30.224000   30.337000   25.240000 N     3 ALA    -0.4157 ****
 15 H      29.929000   30.919000   24.477000 H     3 ALA     0.2719 ****
 16 CA     31.144000   30.989000   26.193000 C     3 ALA     0.0337 ****
 17 HA     30.563000   31.425000   27.005000 H     3 ALA     0.0823 ****
 18 CB     32.165000   29.995000   26.787000 C     3 ALA    -0.1825 ****
 19 HB1    32.687000   29.466000   25.988000 H     3 ALA     0.0603 ****
 20 HB2    32.895000   30.531000   27.395000 H     3 ALA     0.0603 ****
 21 HB3    31.666000   29.278000   27.438000 H     3 ALA     0.0603 ****
 22 C      31.884000   32.136000   25.456000 C     3 ALA     0.5973 ****
 23 O      33.102000   32.285000   25.530000 O     3 ALA    -0.5679 ****
 24 N      31.133000   32.949000   24.701000 N     4 ALA    -0.4157 ****
 25 H      30.127000   32.846000   24.721000 H     4 ALA     0.2719 ****
 26 CA     31.651000   34.048000   23.886000 C     4 ALA     0.0337 ****
 27 HA     32.435000   34.565000   24.442000 H     4 ALA     0.0823 ****
 28 CB     32.254000   33.478000   22.592000 C     4 ALA    -0.1825 ****
 29 HB1    31.487000   32.947000   22.026000 H     4 ALA     0.0603 ****
 30 HB2    32.652000   34.288000   21.981000 H     4 ALA     0.0603 ****
 31 HB3    33.066000   32.789000   22.831000 H     4 ALA     0.0603 ****
 32 C      30.535000   35.058000   23.563000 C     4 ALA     0.5973 ****
 33 O      29.367000   34.681000   23.488000 O     4 ALA    -0.5679 ****
 34 N      30.900000   36.327000   23.343000 N     5 NME    -0.4157 ****
 35 H      31.879000   36.558000   23.413000 H     5 NME     0.2719 ****
 36 CH3    29.962000   37.400000   23.016000 C     5 NME    -0.1490 ****
 37 HH31   30.493000   38.345000   22.896000 H     5 NME     0.0976 ****
 38 HH32   29.438000   37.161000   22.088000 H     5 NME     0.0976 ****
 39 HH33   29.224000   37.500000   23.814000 H     5 NME     0.0976 ****
@<TRIPOS>BOND
    1     5     6 1
    2     5     7 1
    3     2     3 1
    4     2     4 1
    5     2     5 1
    6     1     2 1
    7    12    13 1
    8    12    14 1
    9     9    10 1
   10     9    11 1
   11     9    12 1
   12     7     8 1
   13     7     9 1
   14    22    23 1
   15    22    24 1
   16    18    19 1
   17    18    20 1
   18    18    21 1
   19    16    17 1
   20    16    18 1
   21    16    22 1
   22    14    15 1
   23    14    16 1
   24    32    33 1
   25    32    34 1
   26    28    29 1
   27    28    30 1
   28    28    31 1
   29    26    27 1
   30    26    28 1
   31    26    32 1
   32    24    25 1
   33    24    26 1
   34    36    37 1
   35    36    38 1
   36    36    39 1
   37    34    35 1
   38    34    36 1
@<TRIPOS>SUBSTRUCTURE
      1  ACE              1 ****               0 ****  **** 
      2  GLY              7 ****               0 ****  **** 
      3  ALA             14 ****               0 ****  **** 
      4  ALA             24 ****               0 ****  **** 
      5  NME             34 ****               0 ****  **** 
