@<TRIPOS>MOLECULE
default_name
   39    38     5     0     1 
SMALL
USER_CHARGES
@<TRIPOS>ATOM
  1 H1     26.254000   25.081000   23.195000 H     1 ACE     0.1123 ****
  2 CH3    26.176000   26.164000   23.281000 C     1 ACE    -0.3662 ****
  3 H2     25.463000   26.419000   24.063000 H     1 ACE     0.1123 ****
  4 H3     25.852000   26.584000   22.331000 H     1 ACE     0.1123 ****
  5 C      27.532000   26.725000   23.639000 C     1 ACE     0.5972 ****
  6 O      28.490000   25.977000   23.782000 O     1 ACE    -0.5679 ****
  7 N      27.614000   28.045000   23.782000 N     2 GLY    -0.4157 ****
  8 H      26.784000   28.606000   23.648000 H     2 GLY     0.2719 ****
  9 CA     28.844000   28.758000   24.127000 C     2 GLY    -0.0252 ****
 10 HA2    29.206000   28.406000   25.094000 H     2 GLY     0.0698 ****
 11 HA3    29.607000   28.544000   23.378000 H     2 GLY     0.0698 ****
 12 C      28.640000   30.274000   24.202000 C     2 GLY     0.5973 ****
 13 O      27.535000   30.768000   23.981000 O     2 GLY    -0.5679 ****
 14 N      29.712000   31.010000   24.499000 N     3 ALA    -0.4157 ****
 15 H      30.589000   30.540000   24.673000 H     3 ALA     0.2719 ****
 16 CA     29.704000   32.459000   24.712000 C     3 ALA     0.0337 ****
 17 HA     29.117000   32.932000   23.922000 H     3 ALA     0.0823 ****
 18 CB     29.058000   32.778000   26.069000 C     3 ALA    -0.1825 ****
 19 HB1    29.615000   32.294000   26.872000 H     3 ALA     0.0603 ****
 20 HB2    29.061000   33.856000   26.233000 H     3 ALA     0.0603 ****
 21 HB3    28.025000   32.427000   26.085000 H     3 ALA     0.0603 ****
 22 C      31.140000   33.007000   24.665000 C     3 ALA     0.5973 ****
 23 O      32.050000   32.413000   25.243000 O     3 ALA    -0.5679 ****
 24 N      31.350000   34.115000   23.951000 N     4 ALA    -0.4157 ****
 25 H      30.561000   34.577000   23.520000 H     4 ALA     0.2719 ****
 26 CA     32.645000   34.778000   23.797000 C     4 ALA     0.0337 ****
 27 HA     33.221000   34.650000   24.715000 H     4 ALA     0.0823 ****
 28 CB     33.410000   34.111000   22.643000 C     4 ALA    -0.1825 ****
 29 HB1    32.853000   34.224000   21.713000 H     4 ALA     0.0603 ****
 30 HB2    34.391000   34.573000   22.530000 H     4 ALA     0.0603 ****
 31 HB3    33.546000   33.049000   22.854000 H     4 ALA     0.0603 ****
 32 C      32.464000   36.289000   23.557000 C     4 ALA     0.5973 ****
 33 O      31.382000   36.730000   23.171000 O     4 ALA    -0.5679 ****
 34 N      33.526000   37.075000   23.776000 N     5 NME    -0.4157 ****
 35 H      34.381000   36.639000   24.085000 H     5 NME     0.2719 ****
 36 CH3    33.520000   38.525000   23.590000 C     5 NME    -0.1490 ****
 37 HH31   32.768000   38.977000   24.239000 H     5 NME     0.0976 ****
 38 HH32   34.499000   38.942000   23.829000 H     5 NME     0.0976 ****
 39 HH33   33.271000   38.762000   22.553000 H     5 NME     0.0976 ****
@<TRIPOS>BOND
    1     5     6 1
    2     5     7 1
    3     2     3 1
    4     2     4 1
    5     2     5 1
    6     1     2 1
    7    12    13 1
    8    12    14 1
    9     9    10 1
   10     9    11 1
   11     9    12 1
   12     7     8 1
   13     7     9 1
   14    22    23 1
   15    22    24 1
   16    18    19 1
   17    18    20 1
   18    18    21 1
   19    16    17 1
   20    16    18 1
   21    16    22 1
   22    14    15 1
   23    14    16 1
   24    32    33 1
   25    32    34 1
   26    28    29 1
   27    28    30 1
   28    28    31 1
   29    26    27 1
   30    26    28 1
   31    26    32 1
   32    24    25 1
   33    24    26 1
   34    36    37 1
   35    36    38 1
   36    36    39 1
   37    34    35 1
   38    34    36 1
@<TRIPOS>SUBSTRUCTURE
      1  ACE              1 ****               0 ****  **** 
      2  GLY              7 ****               0 ****  **** 
      3  ALA             14 ****               0 ****  **** 
      4  ALA             24 ****               0 ****  **** 
      5  NME             34 ****               0 ****  **** 
