@<TRIPOS>MOLECULE
default_name
   39    38     5     0     1 
SMALL
USER_CHARGES
@<TRIPOS>ATOM
  1 H1     28.186000   28.470000   21.048000 H     1 ACE     0.1123 ****
  2 CH3    28.914000   29.216000   21.359000 C     1 ACE    -0.3662 ****
  3 H2     28.965000   30.008000   20.613000 H     1 ACE     0.1123 ****
  4 H3     29.895000   28.756000   21.468000 H     1 ACE     0.1123 ****
  5 C      28.490000   29.812000   22.679000 C     1 ACE     0.5972 ****
  6 O      28.269000   31.014000   22.772000 O     1 ACE    -0.5679 ****
  7 N      28.384000   28.978000   23.713000 N     2 GLY    -0.4157 ****
  8 H      28.612000   28.008000   23.570000 H     2 GLY     0.2719 ****
  9 CA     28.044000   29.415000   25.071000 C     2 GLY    -0.0252 ****
 10 HA2    27.154000   30.043000   25.042000 H     2 GLY     0.0698 ****
 11 HA3    27.828000   28.543000   25.687000 H     2 GLY     0.0698 ****
 12 C      29.190000   30.189000   25.728000 C     2 GLY     0.5973 ****
 13 O      30.098000   29.567000   26.267000 O     2 GLY    -0.5679 ****
 14 N      29.141000   31.524000   25.636000 N     3 ALA    -0.4157 ****
 15 H      28.371000   31.894000   25.099000 H     3 ALA     0.2719 ****
 16 CA     30.049000   32.518000   26.240000 C     3 ALA     0.0337 ****
 17 HA     29.403000   33.375000   26.430000 H     3 ALA     0.0823 ****
 18 CB     30.559000   32.129000   27.639000 C     3 ALA    -0.1825 ****
 19 HB1    31.339000   31.371000   27.557000 H     3 ALA     0.0603 ****
 20 HB2    30.985000   33.005000   28.129000 H     3 ALA     0.0603 ****
 21 HB3    29.739000   31.746000   28.248000 H     3 ALA     0.0603 ****
 22 C      31.104000   33.100000   25.272000 C     3 ALA     0.5973 ****
 23 O      32.087000   33.700000   25.702000 O     3 ALA    -0.5679 ****
 24 N      30.906000   32.937000   23.960000 N     4 ALA    -0.4157 ****
 25 H      30.080000   32.447000   23.658000 H     4 ALA     0.2719 ****
 26 CA     31.792000   33.452000   22.918000 C     4 ALA     0.0337 ****
 27 HA     32.826000   33.261000   23.210000 H     4 ALA     0.0823 ****
 28 CB     31.515000   32.661000   21.631000 C     4 ALA    -0.1825 ****
 29 HB1    30.476000   32.799000   21.322000 H     4 ALA     0.0603 ****
 30 HB2    32.170000   33.017000   20.835000 H     4 ALA     0.0603 ****
 31 HB3    31.701000   31.600000   21.799000 H     4 ALA     0.0603 ****
 32 C      31.626000   34.977000   22.732000 C     4 ALA     0.5973 ****
 33 O      30.775000   35.430000   21.969000 O     4 ALA    -0.5679 ****
 34 N      32.443000   35.768000   23.437000 N     5 NME    -0.4157 ****
 35 H      33.067000   35.325000   24.096000 H     5 NME     0.2719 ****
 36 CH3    32.425000   37.228000   23.380000 C     5 NME    -0.1490 ****
 37 HH31   31.438000   37.594000   23.672000 H     5 NME     0.0976 ****
 38 HH32   33.176000   37.641000   24.054000 H     5 NME     0.0976 ****
 39 HH33   32.631000   37.560000   22.360000 H     5 NME     0.0976 ****
@<TRIPOS>BOND
    1     5     6 1
    2     5     7 1
    3     2     3 1
    4     2     4 1
    5     2     5 1
    6     1     2 1
    7    12    13 1
    8    12    14 1
    9     9    10 1
   10     9    11 1
   11     9    12 1
   12     7     8 1
   13     7     9 1
   14    22    23 1
   15    22    24 1
   16    18    19 1
   17    18    20 1
   18    18    21 1
   19    16    17 1
   20    16    18 1
   21    16    22 1
   22    14    15 1
   23    14    16 1
   24    32    33 1
   25    32    34 1
   26    28    29 1
   27    28    30 1
   28    28    31 1
   29    26    27 1
   30    26    28 1
   31    26    32 1
   32    24    25 1
   33    24    26 1
   34    36    37 1
   35    36    38 1
   36    36    39 1
   37    34    35 1
   38    34    36 1
@<TRIPOS>SUBSTRUCTURE
      1  ACE              1 ****               0 ****  **** 
      2  GLY              7 ****               0 ****  **** 
      3  ALA             14 ****               0 ****  **** 
      4  ALA             24 ****               0 ****  **** 
      5  NME             34 ****               0 ****  **** 
