@<TRIPOS>MOLECULE
default_name
   39    38     5     0     1 
SMALL
USER_CHARGES
@<TRIPOS>ATOM
  1 H1     26.088000   26.742000   21.580000 H     1 ACE     0.1123 ****
  2 CH3    26.749000   27.608000   21.596000 C     1 ACE    -0.3662 ****
  3 H2     26.249000   28.459000   21.138000 H     1 ACE     0.1123 ****
  4 H3     27.665000   27.379000   21.054000 H     1 ACE     0.1123 ****
  5 C      27.087000   27.939000   23.030000 C     1 ACE     0.5972 ****
  6 O      26.629000   27.266000   23.944000 O     1 ACE    -0.5679 ****
  7 N      27.892000   28.979000   23.230000 N     2 GLY    -0.4157 ****
  8 H      28.240000   29.494000   22.433000 H     2 GLY     0.2719 ****
  9 CA     28.319000   29.442000   24.551000 C     2 GLY    -0.0252 ****
 10 HA2    27.440000   29.726000   25.130000 H     2 GLY     0.0698 ****
 11 HA3    28.824000   28.628000   25.071000 H     2 GLY     0.0698 ****
 12 C      29.266000   30.643000   24.475000 C     2 GLY     0.5973 ****
 13 O      29.629000   31.062000   23.381000 O     2 GLY    -0.5679 ****
 14 N      29.690000   31.124000   25.651000 N     3 ALA    -0.4157 ****
 15 H      29.367000   30.617000   26.458000 H     3 ALA     0.2719 ****
 16 CA     30.370000   32.395000   25.959000 C     3 ALA     0.0337 ****
 17 HA     29.603000   33.057000   26.364000 H     3 ALA     0.0823 ****
 18 CB     31.355000   32.127000   27.113000 C     3 ALA    -0.1825 ****
 19 HB1    32.143000   31.447000   26.787000 H     3 ALA     0.0603 ****
 20 HB2    31.797000   33.066000   27.452000 H     3 ALA     0.0603 ****
 21 HB3    30.826000   31.678000   27.954000 H     3 ALA     0.0603 ****
 22 C      30.971000   33.198000   24.773000 C     3 ALA     0.5973 ****
 23 O      30.220000   33.762000   23.983000 O     3 ALA    -0.5679 ****
 24 N      32.295000   33.405000   24.755000 N     4 ALA    -0.4157 ****
 25 H      32.836000   32.955000   25.473000 H     4 ALA     0.2719 ****
 26 CA     33.031000   34.266000   23.821000 C     4 ALA     0.0337 ****
 27 HA     34.068000   34.262000   24.159000 H     4 ALA     0.0823 ****
 28 CB     33.054000   33.641000   22.415000 C     4 ALA    -0.1825 ****
 29 HB1    32.043000   33.574000   22.010000 H     4 ALA     0.0603 ****
 30 HB2    33.666000   34.252000   21.751000 H     4 ALA     0.0603 ****
 31 HB3    33.478000   32.638000   22.465000 H     4 ALA     0.0603 ****
 32 C      32.619000   35.755000   23.872000 C     4 ALA     0.5973 ****
 33 O      33.199000   36.507000   24.653000 O     4 ALA    -0.5679 ****
 34 N      31.651000   36.186000   23.054000 N     5 NME    -0.4157 ****
 35 H      31.181000   35.494000   22.489000 H     5 NME     0.2719 ****
 36 CH3    31.169000   37.564000   23.001000 C     5 NME    -0.1490 ****
 37 HH31   30.766000   37.848000   23.975000 H     5 NME     0.0976 ****
 38 HH32   31.994000   38.235000   22.753000 H     5 NME     0.0976 ****
 39 HH33   30.386000   37.659000   22.247000 H     5 NME     0.0976 ****
@<TRIPOS>BOND
    1     5     6 1
    2     5     7 1
    3     2     3 1
    4     2     4 1
    5     2     5 1
    6     1     2 1
    7    12    13 1
    8    12    14 1
    9     9    10 1
   10     9    11 1
   11     9    12 1
   12     7     8 1
   13     7     9 1
   14    22    23 1
   15    22    24 1
   16    18    19 1
   17    18    20 1
   18    18    21 1
   19    16    17 1
   20    16    18 1
   21    16    22 1
   22    14    15 1
   23    14    16 1
   24    32    33 1
   25    32    34 1
   26    28    29 1
   27    28    30 1
   28    28    31 1
   29    26    27 1
   30    26    28 1
   31    26    32 1
   32    24    25 1
   33    24    26 1
   34    36    37 1
   35    36    38 1
   36    36    39 1
   37    34    35 1
   38    34    36 1
@<TRIPOS>SUBSTRUCTURE
      1  ACE              1 ****               0 ****  **** 
      2  GLY              7 ****               0 ****  **** 
      3  ALA             14 ****               0 ****  **** 
      4  ALA             24 ****               0 ****  **** 
      5  NME             34 ****               0 ****  **** 
