@<TRIPOS>MOLECULE
default_name
   39    38     5     0     1 
SMALL
USER_CHARGES
@<TRIPOS>ATOM
  1 H1     26.207000   24.974000   23.539000 H     1 ACE     0.1123 ****
  2 CH3    26.142000   26.061000   23.517000 C     1 ACE    -0.3662 ****
  3 H2     25.409000   26.400000   24.246000 H     1 ACE     0.1123 ****
  4 H3     25.854000   26.390000   22.520000 H     1 ACE     0.1123 ****
  5 C      27.495000   26.639000   23.862000 C     1 ACE     0.5972 ****
  6 O      28.436000   25.898000   24.109000 O     1 ACE    -0.5679 ****
  7 N      27.591000   27.965000   23.879000 N     2 GLY    -0.4157 ****
  8 H      26.774000   28.520000   23.665000 H     2 GLY     0.2719 ****
  9 CA     28.820000   28.695000   24.193000 C     2 GLY    -0.0252 ****
 10 HA2    29.150000   28.429000   25.198000 H     2 GLY     0.0698 ****
 11 HA3    29.601000   28.406000   23.489000 H     2 GLY     0.0698 ****
 12 C      28.632000   30.213000   24.124000 C     2 GLY     0.5973 ****
 13 O      27.541000   30.695000   23.824000 O     2 GLY    -0.5679 ****
 14 N      29.703000   30.963000   24.388000 N     3 ALA    -0.4157 ****
 15 H      30.573000   30.505000   24.619000 H     3 ALA     0.2719 ****
 16 CA     29.715000   32.426000   24.448000 C     3 ALA     0.0337 ****
 17 HA     29.174000   32.823000   23.587000 H     3 ALA     0.0823 ****
 18 CB     29.018000   32.895000   25.735000 C     3 ALA    -0.1825 ****
 19 HB1    29.535000   32.491000   26.607000 H     3 ALA     0.0603 ****
 20 HB2    29.030000   33.984000   25.786000 H     3 ALA     0.0603 ****
 21 HB3    27.981000   32.558000   25.744000 H     3 ALA     0.0603 ****
 22 C      31.162000   32.950000   24.410000 C     3 ALA     0.5973 ****
 23 O      32.079000   32.281000   24.885000 O     3 ALA    -0.5679 ****
 24 N      31.366000   34.137000   23.833000 N     4 ALA    -0.4157 ****
 25 H      30.571000   34.660000   23.493000 H     4 ALA     0.2719 ****
 26 CA     32.667000   34.798000   23.720000 C     4 ALA     0.0337 ****
 27 HA     33.270000   34.548000   24.595000 H     4 ALA     0.0823 ****
 28 CB     33.383000   34.274000   22.466000 C     4 ALA    -0.1825 ****
 29 HB1    32.797000   34.511000   21.577000 H     4 ALA     0.0603 ****
 30 HB2    34.367000   34.735000   22.379000 H     4 ALA     0.0603 ****
 31 HB3    33.508000   33.193000   22.536000 H     4 ALA     0.0603 ****
 32 C      32.501000   36.330000   23.680000 C     4 ALA     0.5973 ****
 33 O      31.414000   36.829000   23.393000 O     4 ALA    -0.5679 ****
 34 N      33.582000   37.069000   23.957000 N     5 NME    -0.4157 ****
 35 H      34.441000   36.588000   24.177000 H     5 NME     0.2719 ****
 36 CH3    33.594000   38.531000   23.956000 C     5 NME    -0.1490 ****
 37 HH31   32.872000   38.906000   24.684000 H     5 NME     0.0976 ****
 38 HH32   34.587000   38.903000   24.210000 H     5 NME     0.0976 ****
 39 HH33   33.312000   38.901000   22.968000 H     5 NME     0.0976 ****
@<TRIPOS>BOND
    1     5     6 1
    2     5     7 1
    3     2     3 1
    4     2     4 1
    5     2     5 1
    6     1     2 1
    7    12    13 1
    8    12    14 1
    9     9    10 1
   10     9    11 1
   11     9    12 1
   12     7     8 1
   13     7     9 1
   14    22    23 1
   15    22    24 1
   16    18    19 1
   17    18    20 1
   18    18    21 1
   19    16    17 1
   20    16    18 1
   21    16    22 1
   22    14    15 1
   23    14    16 1
   24    32    33 1
   25    32    34 1
   26    28    29 1
   27    28    30 1
   28    28    31 1
   29    26    27 1
   30    26    28 1
   31    26    32 1
   32    24    25 1
   33    24    26 1
   34    36    37 1
   35    36    38 1
   36    36    39 1
   37    34    35 1
   38    34    36 1
@<TRIPOS>SUBSTRUCTURE
      1  ACE              1 ****               0 ****  **** 
      2  GLY              7 ****               0 ****  **** 
      3  ALA             14 ****               0 ****  **** 
      4  ALA             24 ****               0 ****  **** 
      5  NME             34 ****               0 ****  **** 
