@<TRIPOS>MOLECULE
default_name
   39    38     5     0     1 
SMALL
USER_CHARGES
@<TRIPOS>ATOM
  1 H1     27.384000   25.236000   22.904000 H     1 ACE     0.1123 ****
  2 CH3    27.468000   26.016000   23.659000 C     1 ACE    -0.3662 ****
  3 H2     28.213000   25.730000   24.399000 H     1 ACE     0.1123 ****
  4 H3     26.504000   26.165000   24.141000 H     1 ACE     0.1123 ****
  5 C      27.896000   27.301000   22.990000 C     1 ACE     0.5972 ****
  6 O      28.087000   27.335000   21.782000 O     1 ACE    -0.5679 ****
  7 N      28.050000   28.363000   23.776000 N     2 GLY    -0.4157 ****
  8 H      27.881000   28.271000   24.768000 H     2 GLY     0.2719 ****
  9 CA     28.456000   29.684000   23.294000 C     2 GLY    -0.0252 ****
 10 HA2    29.411000   29.595000   22.775000 H     2 GLY     0.0698 ****
 11 HA3    27.713000   30.050000   22.585000 H     2 GLY     0.0698 ****
 12 C      28.603000   30.706000   24.425000 C     2 GLY     0.5973 ****
 13 O      28.365000   30.369000   25.582000 O     2 GLY    -0.5679 ****
 14 N      29.023000   31.924000   24.053000 N     3 ALA    -0.4157 ****
 15 H      29.169000   32.031000   23.063000 H     3 ALA     0.2719 ****
 16 CA     29.124000   33.175000   24.838000 C     3 ALA     0.0337 ****
 17 HA     28.639000   33.926000   24.213000 H     3 ALA     0.0823 ****
 18 CB     28.300000   33.182000   26.139000 C     3 ALA    -0.1825 ****
 19 HB1    28.770000   32.539000   26.884000 H     3 ALA     0.0603 ****
 20 HB2    28.258000   34.196000   26.539000 H     3 ALA     0.0603 ****
 21 HB3    27.283000   32.840000   25.947000 H     3 ALA     0.0603 ****
 22 C      30.568000   33.713000   24.981000 C     3 ALA     0.5973 ****
 23 O      30.905000   34.370000   25.963000 O     3 ALA    -0.5679 ****
 24 N      31.429000   33.462000   23.989000 N     4 ALA    -0.4157 ****
 25 H      31.111000   32.948000   23.188000 H     4 ALA     0.2719 ****
 26 CA     32.751000   34.082000   23.909000 C     4 ALA     0.0337 ****
 27 HA     33.201000   34.077000   24.904000 H     4 ALA     0.0823 ****
 28 CB     33.637000   33.242000   22.980000 C     4 ALA    -0.1825 ****
 29 HB1    33.218000   33.231000   21.973000 H     4 ALA     0.0603 ****
 30 HB2    34.639000   33.671000   22.941000 H     4 ALA     0.0603 ****
 31 HB3    33.706000   32.220000   23.356000 H     4 ALA     0.0603 ****
 32 C      32.649000   35.544000   23.433000 C     4 ALA     0.5973 ****
 33 O      31.859000   35.850000   22.540000 O     4 ALA    -0.5679 ****
 34 N      33.473000   36.433000   24.001000 N     5 NME    -0.4157 ****
 35 H      34.077000   36.111000   24.741000 H     5 NME     0.2719 ****
 36 CH3    33.507000   37.853000   23.655000 C     5 NME    -0.1490 ****
 37 HH31   32.537000   38.306000   23.872000 H     5 NME     0.0976 ****
 38 HH32   34.279000   38.365000   24.229000 H     5 NME     0.0976 ****
 39 HH33   33.713000   37.968000   22.589000 H     5 NME     0.0976 ****
@<TRIPOS>BOND
    1     5     6 1
    2     5     7 1
    3     2     3 1
    4     2     4 1
    5     2     5 1
    6     1     2 1
    7    12    13 1
    8    12    14 1
    9     9    10 1
   10     9    11 1
   11     9    12 1
   12     7     8 1
   13     7     9 1
   14    22    23 1
   15    22    24 1
   16    18    19 1
   17    18    20 1
   18    18    21 1
   19    16    17 1
   20    16    18 1
   21    16    22 1
   22    14    15 1
   23    14    16 1
   24    32    33 1
   25    32    34 1
   26    28    29 1
   27    28    30 1
   28    28    31 1
   29    26    27 1
   30    26    28 1
   31    26    32 1
   32    24    25 1
   33    24    26 1
   34    36    37 1
   35    36    38 1
   36    36    39 1
   37    34    35 1
   38    34    36 1
@<TRIPOS>SUBSTRUCTURE
      1  ACE              1 ****               0 ****  **** 
      2  GLY              7 ****               0 ****  **** 
      3  ALA             14 ****               0 ****  **** 
      4  ALA             24 ****               0 ****  **** 
      5  NME             34 ****               0 ****  **** 
