@<TRIPOS>MOLECULE
default_name
   39    38     5     0     1 
SMALL
USER_CHARGES
@<TRIPOS>ATOM
  1 H1     26.984000   25.468000   22.864000 H     1 ACE     0.1123 ****
  2 CH3    26.838000   26.547000   22.878000 C     1 ACE    -0.3662 ****
  3 H2     25.905000   26.784000   23.386000 H     1 ACE     0.1123 ****
  4 H3     26.811000   26.926000   21.858000 H     1 ACE     0.1123 ****
  5 C      27.988000   27.188000   23.619000 C     1 ACE     0.5972 ****
  6 O      28.884000   26.497000   24.086000 O     1 ACE    -0.5679 ****
  7 N      27.966000   28.513000   23.729000 N     2 GLY    -0.4157 ****
  8 H      27.199000   29.029000   23.321000 H     2 GLY     0.2719 ****
  9 CA     29.000000   29.290000   24.413000 C     2 GLY    -0.0252 ****
 10 HA2    29.056000   28.972000   25.454000 H     2 GLY     0.0698 ****
 11 HA3    29.964000   29.094000   23.942000 H     2 GLY     0.0698 ****
 12 C      28.729000   30.796000   24.373000 C     2 GLY     0.5973 ****
 13 O      27.714000   31.232000   23.837000 O     2 GLY    -0.5679 ****
 14 N      29.648000   31.584000   24.939000 N     3 ALA    -0.4157 ****
 15 H      30.428000   31.138000   25.390000 H     3 ALA     0.2719 ****
 16 CA     29.525000   33.044000   25.053000 C     3 ALA     0.0337 ****
 17 HA     28.502000   33.340000   24.813000 H     3 ALA     0.0823 ****
 18 CB     29.788000   33.438000   26.513000 C     3 ALA    -0.1825 ****
 19 HB1    30.803000   33.167000   26.807000 H     3 ALA     0.0603 ****
 20 HB2    29.659000   34.515000   26.627000 H     3 ALA     0.0603 ****
 21 HB3    29.075000   32.931000   27.165000 H     3 ALA     0.0603 ****
 22 C      30.444000   33.809000   24.080000 C     3 ALA     0.5973 ****
 23 O      30.006000   34.770000   23.458000 O     3 ALA    -0.5679 ****
 24 N      31.717000   33.400000   23.977000 N     4 ALA    -0.4157 ****
 25 H      31.984000   32.605000   24.530000 H     4 ALA     0.2719 ****
 26 CA     32.751000   33.947000   23.080000 C     4 ALA     0.0337 ****
 27 HA     33.665000   33.398000   23.308000 H     4 ALA     0.0823 ****
 28 CB     32.399000   33.590000   21.627000 C     4 ALA    -0.1825 ****
 29 HB1    31.519000   34.151000   21.307000 H     4 ALA     0.0603 ****
 30 HB2    33.233000   33.849000   20.973000 H     4 ALA     0.0603 ****
 31 HB3    32.199000   32.522000   21.538000 H     4 ALA     0.0603 ****
 32 C      33.151000   35.436000   23.263000 C     4 ALA     0.5973 ****
 33 O      34.021000   35.913000   22.539000 O     4 ALA    -0.5679 ****
 34 N      32.591000   36.157000   24.245000 N     5 NME    -0.4157 ****
 35 H      31.863000   35.726000   24.788000 H     5 NME     0.2719 ****
 36 CH3    32.901000   37.560000   24.509000 C     5 NME    -0.1490 ****
 37 HH31   32.324000   37.921000   25.362000 H     5 NME     0.0976 ****
 38 HH32   33.967000   37.671000   24.718000 H     5 NME     0.0976 ****
 39 HH33   32.655000   38.160000   23.630000 H     5 NME     0.0976 ****
@<TRIPOS>BOND
    1     5     6 1
    2     5     7 1
    3     2     3 1
    4     2     4 1
    5     2     5 1
    6     1     2 1
    7    12    13 1
    8    12    14 1
    9     9    10 1
   10     9    11 1
   11     9    12 1
   12     7     8 1
   13     7     9 1
   14    22    23 1
   15    22    24 1
   16    18    19 1
   17    18    20 1
   18    18    21 1
   19    16    17 1
   20    16    18 1
   21    16    22 1
   22    14    15 1
   23    14    16 1
   24    32    33 1
   25    32    34 1
   26    28    29 1
   27    28    30 1
   28    28    31 1
   29    26    27 1
   30    26    28 1
   31    26    32 1
   32    24    25 1
   33    24    26 1
   34    36    37 1
   35    36    38 1
   36    36    39 1
   37    34    35 1
   38    34    36 1
@<TRIPOS>SUBSTRUCTURE
      1  ACE              1 ****               0 ****  **** 
      2  GLY              7 ****               0 ****  **** 
      3  ALA             14 ****               0 ****  **** 
      4  ALA             24 ****               0 ****  **** 
      5  NME             34 ****               0 ****  **** 
