@<TRIPOS>MOLECULE
default_name
   39    38     5     0     1 
SMALL
USER_CHARGES
@<TRIPOS>ATOM
  1 H1     26.376000   24.856000   23.630000 H     1 ACE     0.1123 ****
  2 CH3    26.301000   25.931000   23.472000 C     1 ACE    -0.3662 ****
  3 H2     25.441000   26.321000   24.012000 H     1 ACE     0.1123 ****
  4 H3     26.199000   26.139000   22.409000 H     1 ACE     0.1123 ****
  5 C      27.558000   26.591000   23.992000 C     1 ACE     0.5972 ****
  6 O      28.448000   25.915000   24.490000 O     1 ACE    -0.5679 ****
  7 N      27.629000   27.914000   23.876000 N     2 GLY    -0.4157 ****
  8 H      26.856000   28.413000   23.458000 H     2 GLY     0.2719 ****
  9 CA     28.769000   28.717000   24.321000 C     2 GLY    -0.0252 ****
 10 HA2    28.945000   28.536000   25.382000 H     2 GLY     0.0698 ****
 11 HA3    29.660000   28.413000   23.770000 H     2 GLY     0.0698 ****
 12 C      28.547000   30.216000   24.107000 C     2 GLY     0.5973 ****
 13 O      27.505000   30.628000   23.598000 O     2 GLY    -0.5679 ****
 14 N      29.527000   31.029000   24.505000 N     3 ALA    -0.4157 ****
 15 H      30.378000   30.614000   24.850000 H     3 ALA     0.2719 ****
 16 CA     29.553000   32.475000   24.265000 C     3 ALA     0.0337 ****
 17 HA     28.826000   32.732000   23.493000 H     3 ALA     0.0823 ****
 18 CB     29.125000   33.166000   25.572000 C     3 ALA    -0.1825 ****
 19 HB1    29.861000   32.976000   26.355000 H     3 ALA     0.0603 ****
 20 HB2    29.031000   34.242000   25.420000 H     3 ALA     0.0603 ****
 21 HB3    28.155000   32.781000   25.890000 H     3 ALA     0.0603 ****
 22 C      30.938000   32.929000   23.752000 C     3 ALA     0.5973 ****
 23 O      31.770000   32.102000   23.382000 O     3 ALA    -0.5679 ****
 24 N      31.212000   34.236000   23.781000 N     4 ALA    -0.4157 ****
 25 H      30.518000   34.870000   24.150000 H     4 ALA     0.2719 ****
 26 CA     32.486000   34.838000   23.385000 C     4 ALA     0.0337 ****
 27 HA     33.296000   34.149000   23.628000 H     4 ALA     0.0823 ****
 28 CB     32.476000   35.065000   21.866000 C     4 ALA    -0.1825 ****
 29 HB1    31.672000   35.752000   21.598000 H     4 ALA     0.0603 ****
 30 HB2    33.428000   35.487000   21.545000 H     4 ALA     0.0603 ****
 31 HB3    32.323000   34.115000   21.351000 H     4 ALA     0.0603 ****
 32 C      32.732000   36.150000   24.154000 C     4 ALA     0.5973 ****
 33 O      31.799000   36.732000   24.706000 O     4 ALA    -0.5679 ****
 34 N      33.987000   36.618000   24.180000 N     5 NME    -0.4157 ****
 35 H      34.698000   36.089000   23.698000 H     5 NME     0.2719 ****
 36 CH3    34.386000   37.850000   24.858000 C     5 NME    -0.1490 ****
 37 HH31   34.151000   37.777000   25.922000 H     5 NME     0.0976 ****
 38 HH32   35.457000   38.020000   24.737000 H     5 NME     0.0976 ****
 39 HH33   33.837000   38.696000   24.439000 H     5 NME     0.0976 ****
@<TRIPOS>BOND
    1     5     6 1
    2     5     7 1
    3     2     3 1
    4     2     4 1
    5     2     5 1
    6     1     2 1
    7    12    13 1
    8    12    14 1
    9     9    10 1
   10     9    11 1
   11     9    12 1
   12     7     8 1
   13     7     9 1
   14    22    23 1
   15    22    24 1
   16    18    19 1
   17    18    20 1
   18    18    21 1
   19    16    17 1
   20    16    18 1
   21    16    22 1
   22    14    15 1
   23    14    16 1
   24    32    33 1
   25    32    34 1
   26    28    29 1
   27    28    30 1
   28    28    31 1
   29    26    27 1
   30    26    28 1
   31    26    32 1
   32    24    25 1
   33    24    26 1
   34    36    37 1
   35    36    38 1
   36    36    39 1
   37    34    35 1
   38    34    36 1
@<TRIPOS>SUBSTRUCTURE
      1  ACE              1 ****               0 ****  **** 
      2  GLY              7 ****               0 ****  **** 
      3  ALA             14 ****               0 ****  **** 
      4  ALA             24 ****               0 ****  **** 
      5  NME             34 ****               0 ****  **** 
