@<TRIPOS>MOLECULE
default_name
   39    38     5     0     1 
SMALL
USER_CHARGES
@<TRIPOS>ATOM
  1 H1     28.901000   27.649000   21.372000 H     1 ACE     0.1123 ****
  2 CH3    28.955000   28.711000   21.603000 C     1 ACE    -0.3662 ****
  3 H2     28.432000   29.281000   20.836000 H     1 ACE     0.1123 ****
  4 H3     29.994000   29.032000   21.650000 H     1 ACE     0.1123 ****
  5 C      28.300000   28.971000   22.938000 C     1 ACE     0.5972 ****
  6 O      27.362000   29.755000   23.022000 O     1 ACE    -0.5679 ****
  7 N      28.797000   28.313000   23.984000 N     2 GLY    -0.4157 ****
  8 H      29.594000   27.717000   23.829000 H     2 GLY     0.2719 ****
  9 CA     28.401000   28.563000   25.374000 C     2 GLY    -0.0252 ****
 10 HA2    27.328000   28.751000   25.430000 H     2 GLY     0.0698 ****
 11 HA3    28.632000   27.689000   25.981000 H     2 GLY     0.0698 ****
 12 C      29.155000   29.763000   25.947000 C     2 GLY     0.5973 ****
 13 O      30.172000   29.570000   26.605000 O     2 GLY    -0.5679 ****
 14 N      28.659000   30.973000   25.661000 N     3 ALA    -0.4157 ****
 15 H      27.811000   30.986000   25.118000 H     3 ALA     0.2719 ****
 16 CA     29.377000   32.249000   25.768000 C     3 ALA     0.0337 ****
 17 HA     28.614000   33.010000   25.602000 H     3 ALA     0.0823 ****
 18 CB     29.907000   32.522000   27.185000 C     3 ALA    -0.1825 ****
 19 HB1    30.772000   31.892000   27.394000 H     3 ALA     0.0603 ****
 20 HB2    30.213000   33.565000   27.269000 H     3 ALA     0.0603 ****
 21 HB3    29.127000   32.320000   27.920000 H     3 ALA     0.0603 ****
 22 C      30.405000   32.464000   24.634000 C     3 ALA     0.5973 ****
 23 O      30.959000   31.518000   24.075000 O     3 ALA    -0.5679 ****
 24 N      30.625000   33.727000   24.261000 N     4 ALA    -0.4157 ****
 25 H      30.171000   34.473000   24.768000 H     4 ALA     0.2719 ****
 26 CA     31.557000   34.137000   23.211000 C     4 ALA     0.0337 ****
 27 HA     32.407000   33.454000   23.206000 H     4 ALA     0.0823 ****
 28 CB     30.847000   34.047000   21.852000 C     4 ALA    -0.1825 ****
 29 HB1    29.989000   34.721000   21.834000 H     4 ALA     0.0603 ****
 30 HB2    31.535000   34.321000   21.052000 H     4 ALA     0.0603 ****
 31 HB3    30.502000   33.025000   21.682000 H     4 ALA     0.0603 ****
 32 C      32.090000   35.558000   23.478000 C     4 ALA     0.5973 ****
 33 O      31.476000   36.323000   24.222000 O     4 ALA    -0.5679 ****
 34 N      33.224000   35.911000   22.859000 N     5 NME    -0.4157 ****
 35 H      33.666000   35.231000   22.261000 H     5 NME     0.2719 ****
 36 CH3    33.857000   37.220000   23.000000 C     5 NME    -0.1490 ****
 37 HH31   34.110000   37.397000   24.048000 H     5 NME     0.0976 ****
 38 HH32   34.766000   37.269000   22.398000 H     5 NME     0.0976 ****
 39 HH33   33.167000   38.001000   22.674000 H     5 NME     0.0976 ****
@<TRIPOS>BOND
    1     5     6 1
    2     5     7 1
    3     2     3 1
    4     2     4 1
    5     2     5 1
    6     1     2 1
    7    12    13 1
    8    12    14 1
    9     9    10 1
   10     9    11 1
   11     9    12 1
   12     7     8 1
   13     7     9 1
   14    22    23 1
   15    22    24 1
   16    18    19 1
   17    18    20 1
   18    18    21 1
   19    16    17 1
   20    16    18 1
   21    16    22 1
   22    14    15 1
   23    14    16 1
   24    32    33 1
   25    32    34 1
   26    28    29 1
   27    28    30 1
   28    28    31 1
   29    26    27 1
   30    26    28 1
   31    26    32 1
   32    24    25 1
   33    24    26 1
   34    36    37 1
   35    36    38 1
   36    36    39 1
   37    34    35 1
   38    34    36 1
@<TRIPOS>SUBSTRUCTURE
      1  ACE              1 ****               0 ****  **** 
      2  GLY              7 ****               0 ****  **** 
      3  ALA             14 ****               0 ****  **** 
      4  ALA             24 ****               0 ****  **** 
      5  NME             34 ****               0 ****  **** 
