@<TRIPOS>MOLECULE
default_name
   39    38     5     0     1 
SMALL
USER_CHARGES
@<TRIPOS>ATOM
  1 H1     26.271000   25.034000   23.253000 H     1 ACE     0.1123 ****
  2 CH3    26.223000   26.122000   23.233000 C     1 ACE    -0.3662 ****
  3 H2     25.402000   26.463000   23.861000 H     1 ACE     0.1123 ****
  4 H3     26.077000   26.464000   22.210000 H     1 ACE     0.1123 ****
  5 C      27.523000   26.678000   23.765000 C     1 ACE     0.5972 ****
  6 O      28.414000   25.923000   24.129000 O     1 ACE    -0.5679 ****
  7 N      27.631000   28.003000   23.810000 N     2 GLY    -0.4157 ****
  8 H      26.858000   28.570000   23.493000 H     2 GLY     0.2719 ****
  9 CA     28.816000   28.714000   24.295000 C     2 GLY    -0.0252 ****
 10 HA2    29.007000   28.431000   25.330000 H     2 GLY     0.0698 ****
 11 HA3    29.680000   28.425000   23.697000 H     2 GLY     0.0698 ****
 12 C      28.654000   30.235000   24.224000 C     2 GLY     0.5973 ****
 13 O      27.618000   30.735000   23.789000 O     2 GLY    -0.5679 ****
 14 N      29.685000   30.969000   24.646000 N     3 ALA    -0.4157 ****
 15 H      30.518000   30.501000   24.972000 H     3 ALA     0.2719 ****
 16 CA     29.717000   32.432000   24.664000 C     3 ALA     0.0337 ****
 17 HA     29.145000   32.808000   23.813000 H     3 ALA     0.0823 ****
 18 CB     29.057000   32.939000   25.953000 C     3 ALA    -0.1825 ****
 19 HB1    29.606000   32.572000   26.822000 H     3 ALA     0.0603 ****
 20 HB2    29.058000   34.029000   25.965000 H     3 ALA     0.0603 ****
 21 HB3    28.025000   32.589000   26.004000 H     3 ALA     0.0603 ****
 22 C      31.162000   32.946000   24.532000 C     3 ALA     0.5973 ****
 23 O      32.098000   32.290000   24.985000 O     3 ALA    -0.5679 ****
 24 N      31.340000   34.113000   23.910000 N     4 ALA    -0.4157 ****
 25 H      30.531000   34.628000   23.593000 H     4 ALA     0.2719 ****
 26 CA     32.635000   34.764000   23.709000 C     4 ALA     0.0337 ****
 27 HA     33.282000   34.537000   24.558000 H     4 ALA     0.0823 ****
 28 CB     33.283000   34.200000   22.436000 C     4 ALA    -0.1825 ****
 29 HB1    32.652000   34.414000   21.571000 H     4 ALA     0.0603 ****
 30 HB2    34.263000   34.651000   22.283000 H     4 ALA     0.0603 ****
 31 HB3    33.407000   33.120000   22.531000 H     4 ALA     0.0603 ****
 32 C      32.474000   36.295000   23.633000 C     4 ALA     0.5973 ****
 33 O      31.375000   36.792000   23.391000 O     4 ALA    -0.5679 ****
 34 N      33.572000   37.036000   23.829000 N     5 NME    -0.4157 ****
 35 H      34.439000   36.556000   24.016000 H     5 NME     0.2719 ****
 36 CH3    33.590000   38.497000   23.783000 C     5 NME    -0.1490 ****
 37 HH31   32.911000   38.898000   24.538000 H     5 NME     0.0976 ****
 38 HH32   34.598000   38.870000   23.972000 H     5 NME     0.0976 ****
 39 HH33   33.257000   38.839000   22.801000 H     5 NME     0.0976 ****
@<TRIPOS>BOND
    1     5     6 1
    2     5     7 1
    3     2     3 1
    4     2     4 1
    5     2     5 1
    6     1     2 1
    7    12    13 1
    8    12    14 1
    9     9    10 1
   10     9    11 1
   11     9    12 1
   12     7     8 1
   13     7     9 1
   14    22    23 1
   15    22    24 1
   16    18    19 1
   17    18    20 1
   18    18    21 1
   19    16    17 1
   20    16    18 1
   21    16    22 1
   22    14    15 1
   23    14    16 1
   24    32    33 1
   25    32    34 1
   26    28    29 1
   27    28    30 1
   28    28    31 1
   29    26    27 1
   30    26    28 1
   31    26    32 1
   32    24    25 1
   33    24    26 1
   34    36    37 1
   35    36    38 1
   36    36    39 1
   37    34    35 1
   38    34    36 1
@<TRIPOS>SUBSTRUCTURE
      1  ACE              1 ****               0 ****  **** 
      2  GLY              7 ****               0 ****  **** 
      3  ALA             14 ****               0 ****  **** 
      4  ALA             24 ****               0 ****  **** 
      5  NME             34 ****               0 ****  **** 
