@<TRIPOS>MOLECULE
default_name
   39    38     5     0     1 
SMALL
USER_CHARGES
@<TRIPOS>ATOM
  1 H1     25.341000   28.619000   23.903000 H     1 ACE     0.1123 ****
  2 CH3    26.174000   28.656000   23.202000 C     1 ACE    -0.3662 ****
  3 H2     26.094000   29.552000   22.589000 H     1 ACE     0.1123 ****
  4 H3     26.155000   27.770000   22.571000 H     1 ACE     0.1123 ****
  5 C      27.468000   28.688000   23.981000 C     1 ACE     0.5972 ****
  6 O      27.451000   28.676000   25.203000 O     1 ACE    -0.5679 ****
  7 N      28.593000   28.755000   23.270000 N     2 GLY    -0.4157 ****
  8 H      28.512000   28.768000   22.266000 H     2 GLY     0.2719 ****
  9 CA     29.948000   28.725000   23.846000 C     2 GLY    -0.0252 ****
 10 HA2    29.971000   27.977000   24.640000 H     2 GLY     0.0698 ****
 11 HA3    30.653000   28.415000   23.075000 H     2 GLY     0.0698 ****
 12 C      30.460000   30.044000   24.447000 C     2 GLY     0.5973 ****
 13 O      31.669000   30.197000   24.588000 O     2 GLY    -0.5679 ****
 14 N      29.576000   31.007000   24.737000 N     3 ALA    -0.4157 ****
 15 H      28.605000   30.784000   24.596000 H     3 ALA     0.2719 ****
 16 CA     29.865000   32.336000   25.288000 C     3 ALA     0.0337 ****
 17 HA     28.888000   32.774000   25.498000 H     3 ALA     0.0823 ****
 18 CB     30.561000   32.260000   26.658000 C     3 ALA    -0.1825 ****
 19 HB1    30.622000   33.258000   27.093000 H     3 ALA     0.0603 ****
 20 HB2    29.984000   31.619000   27.327000 H     3 ALA     0.0603 ****
 21 HB3    31.568000   31.854000   26.562000 H     3 ALA     0.0603 ****
 22 C      30.490000   33.301000   24.262000 C     3 ALA     0.5973 ****
 23 O      29.763000   34.070000   23.642000 O     3 ALA    -0.5679 ****
 24 N      31.817000   33.258000   24.087000 N     4 ALA    -0.4157 ****
 25 H      32.322000   32.578000   24.634000 H     4 ALA     0.2719 ****
 26 CA     32.604000   34.007000   23.092000 C     4 ALA     0.0337 ****
 27 HA     33.647000   33.764000   23.294000 H     4 ALA     0.0823 ****
 28 CB     32.303000   33.449000   21.692000 C     4 ALA    -0.1825 ****
 29 HB1    31.283000   33.705000   21.400000 H     4 ALA     0.0603 ****
 30 HB2    32.994000   33.882000   20.967000 H     4 ALA     0.0603 ****
 31 HB3    32.421000   32.365000   21.688000 H     4 ALA     0.0603 ****
 32 C      32.554000   35.556000   23.159000 C     4 ALA     0.5973 ****
 33 O      33.161000   36.216000   22.319000 O     4 ALA    -0.5679 ****
 34 N      31.892000   36.148000   24.163000 N     5 NME    -0.4157 ****
 35 H      31.385000   35.556000   24.798000 H     5 NME     0.2719 ****
 36 CH3    31.784000   37.596000   24.337000 C     5 NME    -0.1490 ****
 37 HH31   31.211000   37.827000   25.235000 H     5 NME     0.0976 ****
 38 HH32   32.781000   38.033000   24.418000 H     5 NME     0.0976 ****
 39 HH33   31.283000   38.030000   23.469000 H     5 NME     0.0976 ****
@<TRIPOS>BOND
    1     5     6 1
    2     5     7 1
    3     2     3 1
    4     2     4 1
    5     2     5 1
    6     1     2 1
    7    12    13 1
    8    12    14 1
    9     9    10 1
   10     9    11 1
   11     9    12 1
   12     7     8 1
   13     7     9 1
   14    22    23 1
   15    22    24 1
   16    18    19 1
   17    18    20 1
   18    18    21 1
   19    16    17 1
   20    16    18 1
   21    16    22 1
   22    14    15 1
   23    14    16 1
   24    32    33 1
   25    32    34 1
   26    28    29 1
   27    28    30 1
   28    28    31 1
   29    26    27 1
   30    26    28 1
   31    26    32 1
   32    24    25 1
   33    24    26 1
   34    36    37 1
   35    36    38 1
   36    36    39 1
   37    34    35 1
   38    34    36 1
@<TRIPOS>SUBSTRUCTURE
      1  ACE              1 ****               0 ****  **** 
      2  GLY              7 ****               0 ****  **** 
      3  ALA             14 ****               0 ****  **** 
      4  ALA             24 ****               0 ****  **** 
      5  NME             34 ****               0 ****  **** 
