@<TRIPOS>MOLECULE
default_name
   39    38     5     0     1 
SMALL
USER_CHARGES
@<TRIPOS>ATOM
  1 H1     25.014000   29.280000   23.895000 H     1 ACE     0.1123 ****
  2 CH3    25.720000   29.416000   23.076000 C     1 ACE    -0.3662 ****
  3 H2     25.524000   30.365000   22.582000 H     1 ACE     0.1123 ****
  4 H3     25.616000   28.597000   22.367000 H     1 ACE     0.1123 ****
  5 C      27.123000   29.421000   23.635000 C     1 ACE     0.5972 ****
  6 O      27.311000   29.286000   24.838000 O     1 ACE    -0.5679 ****
  7 N      28.118000   29.578000   22.763000 N     2 GLY    -0.4157 ****
  8 H      27.884000   29.709000   21.792000 H     2 GLY     0.2719 ****
  9 CA     29.528000   29.660000   23.153000 C     2 GLY    -0.0252 ****
 10 HA2    29.749000   28.891000   23.895000 H     2 GLY     0.0698 ****
 11 HA3    30.154000   29.478000   22.279000 H     2 GLY     0.0698 ****
 12 C      29.893000   31.033000   23.724000 C     2 GLY     0.5973 ****
 13 O      30.114000   31.957000   22.949000 O     2 GLY    -0.5679 ****
 14 N      29.855000   31.160000   25.056000 N     3 ALA    -0.4157 ****
 15 H      29.436000   30.366000   25.516000 H     3 ALA     0.2719 ****
 16 CA     30.484000   32.099000   26.012000 C     3 ALA     0.0337 ****
 17 HA     29.662000   32.658000   26.463000 H     3 ALA     0.0823 ****
 18 CB     31.087000   31.228000   27.124000 C     3 ALA    -0.1825 ****
 19 HB1    31.916000   30.638000   26.731000 H     3 ALA     0.0603 ****
 20 HB2    31.456000   31.865000   27.929000 H     3 ALA     0.0603 ****
 21 HB3    30.328000   30.560000   27.534000 H     3 ALA     0.0603 ****
 22 C      31.518000   33.187000   25.604000 C     3 ALA     0.5973 ****
 23 O      31.627000   34.168000   26.334000 O     3 ALA    -0.5679 ****
 24 N      32.211000   33.121000   24.463000 N     4 ALA    -0.4157 ****
 25 H      32.273000   32.242000   23.985000 H     4 ALA     0.2719 ****
 26 CA     33.068000   34.201000   23.956000 C     4 ALA     0.0337 ****
 27 HA     33.649000   34.605000   24.786000 H     4 ALA     0.0823 ****
 28 CB     34.042000   33.582000   22.945000 C     4 ALA    -0.1825 ****
 29 HB1    33.492000   33.178000   22.094000 H     4 ALA     0.0603 ****
 30 HB2    34.730000   34.350000   22.587000 H     4 ALA     0.0603 ****
 31 HB3    34.619000   32.788000   23.419000 H     4 ALA     0.0603 ****
 32 C      32.298000   35.390000   23.333000 C     4 ALA     0.5973 ****
 33 O      32.903000   36.422000   23.048000 O     4 ALA    -0.5679 ****
 34 N      30.985000   35.253000   23.102000 N     5 NME    -0.4157 ****
 35 H      30.564000   34.368000   23.339000 H     5 NME     0.2719 ****
 36 CH3    30.134000   36.294000   22.531000 C     5 NME    -0.1490 ****
 37 HH31   30.541000   36.617000   21.571000 H     5 NME     0.0976 ****
 38 HH32   29.122000   35.914000   22.386000 H     5 NME     0.0976 ****
 39 HH33   30.105000   37.153000   23.205000 H     5 NME     0.0976 ****
@<TRIPOS>BOND
    1     5     6 1
    2     5     7 1
    3     2     3 1
    4     2     4 1
    5     2     5 1
    6     1     2 1
    7    12    13 1
    8    12    14 1
    9     9    10 1
   10     9    11 1
   11     9    12 1
   12     7     8 1
   13     7     9 1
   14    22    23 1
   15    22    24 1
   16    18    19 1
   17    18    20 1
   18    18    21 1
   19    16    17 1
   20    16    18 1
   21    16    22 1
   22    14    15 1
   23    14    16 1
   24    32    33 1
   25    32    34 1
   26    28    29 1
   27    28    30 1
   28    28    31 1
   29    26    27 1
   30    26    28 1
   31    26    32 1
   32    24    25 1
   33    24    26 1
   34    36    37 1
   35    36    38 1
   36    36    39 1
   37    34    35 1
   38    34    36 1
@<TRIPOS>SUBSTRUCTURE
      1  ACE              1 ****               0 ****  **** 
      2  GLY              7 ****               0 ****  **** 
      3  ALA             14 ****               0 ****  **** 
      4  ALA             24 ****               0 ****  **** 
      5  NME             34 ****               0 ****  **** 
