@<TRIPOS>MOLECULE
default_name
   39    38     5     0     1 
SMALL
USER_CHARGES
@<TRIPOS>ATOM
  1 H1     25.269000   27.557000   23.250000 H     1 ACE     0.1123 ****
  2 CH3    26.287000   27.283000   22.974000 C     1 ACE    -0.3662 ****
  3 H2     26.484000   27.600000   21.952000 H     1 ACE     0.1123 ****
  4 H3     26.411000   26.206000   23.061000 H     1 ACE     0.1123 ****
  5 C      27.250000   27.977000   23.908000 C     1 ACE     0.5972 ****
  6 O      26.831000   28.709000   24.795000 O     1 ACE    -0.5679 ****
  7 N      28.547000   27.748000   23.708000 N     2 GLY    -0.4157 ****
  8 H      28.816000   27.159000   22.936000 H     2 GLY     0.2719 ****
  9 CA     29.612000   28.393000   24.480000 C     2 GLY    -0.0252 ****
 10 HA2    29.357000   28.387000   25.540000 H     2 GLY     0.0698 ****
 11 HA3    30.541000   27.837000   24.351000 H     2 GLY     0.0698 ****
 12 C      29.860000   29.835000   24.031000 C     2 GLY     0.5973 ****
 13 O      30.563000   30.045000   23.049000 O     2 GLY    -0.5679 ****
 14 N      29.204000   30.795000   24.693000 N     3 ALA    -0.4157 ****
 15 H      28.506000   30.458000   25.338000 H     3 ALA     0.2719 ****
 16 CA     29.585000   32.203000   24.886000 C     3 ALA     0.0337 ****
 17 HA     28.832000   32.796000   24.367000 H     3 ALA     0.0823 ****
 18 CB     29.462000   32.520000   26.382000 C     3 ALA    -0.1825 ****
 19 HB1    30.196000   31.940000   26.944000 H     3 ALA     0.0603 ****
 20 HB2    29.645000   33.582000   26.552000 H     3 ALA     0.0603 ****
 21 HB3    28.460000   32.275000   26.737000 H     3 ALA     0.0603 ****
 22 C      30.958000   32.669000   24.341000 C     3 ALA     0.5973 ****
 23 O      31.977000   31.996000   24.492000 O     3 ALA    -0.5679 ****
 24 N      31.029000   33.938000   23.927000 N     4 ALA    -0.4157 ****
 25 H      30.192000   34.501000   23.929000 H     4 ALA     0.2719 ****
 26 CA     32.254000   34.605000   23.487000 C     4 ALA     0.0337 ****
 27 HA     33.097000   34.218000   24.062000 H     4 ALA     0.0823 ****
 28 CB     32.487000   34.281000   22.003000 C     4 ALA    -0.1825 ****
 29 HB1    31.657000   34.659000   21.405000 H     4 ALA     0.0603 ****
 30 HB2    33.414000   34.740000   21.661000 H     4 ALA     0.0603 ****
 31 HB3    32.561000   33.200000   21.870000 H     4 ALA     0.0603 ****
 32 C      32.172000   36.124000   23.730000 C     4 ALA     0.5973 ****
 33 O      31.082000   36.670000   23.898000 O     4 ALA    -0.5679 ****
 34 N      33.326000   36.803000   23.736000 N     5 NME    -0.4157 ****
 35 H      34.178000   36.285000   23.584000 H     5 NME     0.2719 ****
 36 CH3    33.424000   38.246000   23.945000 C     5 NME    -0.1490 ****
 37 HH31   33.005000   38.507000   24.919000 H     5 NME     0.0976 ****
 38 HH32   34.467000   38.566000   23.904000 H     5 NME     0.0976 ****
 39 HH33   32.857000   38.770000   23.173000 H     5 NME     0.0976 ****
@<TRIPOS>BOND
    1     5     6 1
    2     5     7 1
    3     2     3 1
    4     2     4 1
    5     2     5 1
    6     1     2 1
    7    12    13 1
    8    12    14 1
    9     9    10 1
   10     9    11 1
   11     9    12 1
   12     7     8 1
   13     7     9 1
   14    22    23 1
   15    22    24 1
   16    18    19 1
   17    18    20 1
   18    18    21 1
   19    16    17 1
   20    16    18 1
   21    16    22 1
   22    14    15 1
   23    14    16 1
   24    32    33 1
   25    32    34 1
   26    28    29 1
   27    28    30 1
   28    28    31 1
   29    26    27 1
   30    26    28 1
   31    26    32 1
   32    24    25 1
   33    24    26 1
   34    36    37 1
   35    36    38 1
   36    36    39 1
   37    34    35 1
   38    34    36 1
@<TRIPOS>SUBSTRUCTURE
      1  ACE              1 ****               0 ****  **** 
      2  GLY              7 ****               0 ****  **** 
      3  ALA             14 ****               0 ****  **** 
      4  ALA             24 ****               0 ****  **** 
      5  NME             34 ****               0 ****  **** 
