@<TRIPOS>MOLECULE
default_name
   39    38     5     0     1 
SMALL
USER_CHARGES
@<TRIPOS>ATOM
  1 H1     26.648000   25.509000   22.906000 H     1 ACE     0.1123 ****
  2 CH3    26.508000   26.578000   23.059000 C     1 ACE    -0.3662 ****
  3 H2     25.753000   26.742000   23.825000 H     1 ACE     0.1123 ****
  4 H3     26.199000   27.044000   22.126000 H     1 ACE     0.1123 ****
  5 C      27.817000   27.183000   23.511000 C     1 ACE     0.5972 ****
  6 O      28.809000   26.479000   23.646000 O     1 ACE    -0.5679 ****
  7 N      27.822000   28.492000   23.746000 N     2 GLY    -0.4157 ****
  8 H      26.969000   29.019000   23.618000 H     2 GLY     0.2719 ****
  9 CA     29.003000   29.236000   24.185000 C     2 GLY    -0.0252 ****
 10 HA2    29.369000   28.809000   25.119000 H     2 GLY     0.0698 ****
 11 HA3    29.786000   29.138000   23.433000 H     2 GLY     0.0698 ****
 12 C      28.714000   30.724000   24.403000 C     2 GLY     0.5973 ****
 13 O      27.583000   31.170000   24.233000 O     2 GLY    -0.5679 ****
 14 N      29.747000   31.481000   24.788000 N     3 ALA    -0.4157 ****
 15 H      30.634000   31.025000   24.913000 H     3 ALA     0.2719 ****
 16 CA     29.673000   32.930000   25.018000 C     3 ALA     0.0337 ****
 17 HA     28.657000   33.273000   24.811000 H     3 ALA     0.0823 ****
 18 CB     29.954000   33.215000   26.500000 C     3 ALA    -0.1825 ****
 19 HB1    30.952000   32.876000   26.776000 H     3 ALA     0.0603 ****
 20 HB2    29.873000   34.287000   26.686000 H     3 ALA     0.0603 ****
 21 HB3    29.216000   32.699000   27.117000 H     3 ALA     0.0603 ****
 22 C      30.589000   33.724000   24.067000 C     3 ALA     0.5973 ****
 23 O      30.107000   34.539000   23.290000 O     3 ALA    -0.5679 ****
 24 N      31.906000   33.482000   24.139000 N     4 ALA    -0.4157 ****
 25 H      32.208000   32.812000   24.826000 H     4 ALA     0.2719 ****
 26 CA     32.959000   34.064000   23.287000 C     4 ALA     0.0337 ****
 27 HA     33.902000   33.674000   23.670000 H     4 ALA     0.0823 ****
 28 CB     32.821000   33.505000   21.862000 C     4 ALA    -0.1825 ****
 29 HB1    31.920000   33.900000   21.390000 H     4 ALA     0.0603 ****
 30 HB2    33.685000   33.803000   21.266000 H     4 ALA     0.0603 ****
 31 HB3    32.769000   32.416000   21.886000 H     4 ALA     0.0603 ****
 32 C      33.147000   35.604000   23.323000 C     4 ALA     0.5973 ****
 33 O      34.027000   36.113000   22.633000 O     4 ALA    -0.5679 ****
 34 N      32.394000   36.346000   24.147000 N     5 NME    -0.4157 ****
 35 H      31.668000   35.882000   24.666000 H     5 NME     0.2719 ****
 36 CH3    32.495000   37.799000   24.265000 C     5 NME    -0.1490 ****
 37 HH31   31.784000   38.170000   25.004000 H     5 NME     0.0976 ****
 38 HH32   33.508000   38.077000   24.563000 H     5 NME     0.0976 ****
 39 HH33   32.279000   38.259000   23.298000 H     5 NME     0.0976 ****
@<TRIPOS>BOND
    1     5     6 1
    2     5     7 1
    3     2     3 1
    4     2     4 1
    5     2     5 1
    6     1     2 1
    7    12    13 1
    8    12    14 1
    9     9    10 1
   10     9    11 1
   11     9    12 1
   12     7     8 1
   13     7     9 1
   14    22    23 1
   15    22    24 1
   16    18    19 1
   17    18    20 1
   18    18    21 1
   19    16    17 1
   20    16    18 1
   21    16    22 1
   22    14    15 1
   23    14    16 1
   24    32    33 1
   25    32    34 1
   26    28    29 1
   27    28    30 1
   28    28    31 1
   29    26    27 1
   30    26    28 1
   31    26    32 1
   32    24    25 1
   33    24    26 1
   34    36    37 1
   35    36    38 1
   36    36    39 1
   37    34    35 1
   38    34    36 1
@<TRIPOS>SUBSTRUCTURE
      1  ACE              1 ****               0 ****  **** 
      2  GLY              7 ****               0 ****  **** 
      3  ALA             14 ****               0 ****  **** 
      4  ALA             24 ****               0 ****  **** 
      5  NME             34 ****               0 ****  **** 
