@<TRIPOS>MOLECULE
default_name
   39    38     5     0     1 
SMALL
USER_CHARGES
@<TRIPOS>ATOM
  1 H1     26.437000   26.727000   25.811000 H     1 ACE     0.1123 ****
  2 CH3    26.746000   26.733000   24.766000 C     1 ACE    -0.3662 ****
  3 H2     25.934000   27.110000   24.148000 H     1 ACE     0.1123 ****
  4 H3     27.012000   25.724000   24.459000 H     1 ACE     0.1123 ****
  5 C      27.949000   27.635000   24.618000 C     1 ACE     0.5972 ****
  6 O      28.409000   28.215000   25.593000 O     1 ACE    -0.5679 ****
  7 N      28.458000   27.755000   23.393000 N     2 GLY    -0.4157 ****
  8 H      28.005000   27.268000   22.637000 H     2 GLY     0.2719 ****
  9 CA     29.583000   28.635000   23.063000 C     2 GLY    -0.0252 ****
 10 HA2    30.361000   28.541000   23.822000 H     2 GLY     0.0698 ****
 11 HA3    30.006000   28.338000   22.103000 H     2 GLY     0.0698 ****
 12 C      29.162000   30.102000   22.959000 C     2 GLY     0.5973 ****
 13 O      28.742000   30.543000   21.893000 O     2 GLY    -0.5679 ****
 14 N      29.219000   30.836000   24.075000 N     3 ALA    -0.4157 ****
 15 H      29.467000   30.361000   24.928000 H     3 ALA     0.2719 ****
 16 CA     29.207000   32.301000   24.100000 C     3 ALA     0.0337 ****
 17 HA     28.312000   32.642000   23.577000 H     3 ALA     0.0823 ****
 18 CB     29.075000   32.711000   25.579000 C     3 ALA    -0.1825 ****
 19 HB1    29.983000   32.449000   26.124000 H     3 ALA     0.0603 ****
 20 HB2    28.899000   33.784000   25.662000 H     3 ALA     0.0603 ****
 21 HB3    28.227000   32.194000   26.031000 H     3 ALA     0.0603 ****
 22 C      30.423000   32.948000   23.376000 C     3 ALA     0.5973 ****
 23 O      31.056000   32.352000   22.508000 O     3 ALA    -0.5679 ****
 24 N      30.829000   34.145000   23.811000 N     4 ALA    -0.4157 ****
 25 H      30.335000   34.574000   24.580000 H     4 ALA     0.2719 ****
 26 CA     31.991000   34.877000   23.306000 C     4 ALA     0.0337 ****
 27 HA     32.763000   34.163000   23.017000 H     4 ALA     0.0823 ****
 28 CB     31.572000   35.674000   22.061000 C     4 ALA    -0.1825 ****
 29 HB1    30.797000   36.396000   22.324000 H     4 ALA     0.0603 ****
 30 HB2    32.431000   36.204000   21.650000 H     4 ALA     0.0603 ****
 31 HB3    31.185000   34.993000   21.300000 H     4 ALA     0.0603 ****
 32 C      32.576000   35.795000   24.395000 C     4 ALA     0.5973 ****
 33 O      31.897000   36.115000   25.371000 O     4 ALA    -0.5679 ****
 34 N      33.833000   36.224000   24.221000 N     5 NME    -0.4157 ****
 35 H      34.323000   35.924000   23.393000 H     5 NME     0.2719 ****
 36 CH3    34.533000   37.104000   25.156000 C     5 NME    -0.1490 ****
 37 HH31   34.592000   36.627000   26.136000 H     5 NME     0.0976 ****
 38 HH32   35.541000   37.314000   24.796000 H     5 NME     0.0976 ****
 39 HH33   33.984000   38.042000   25.260000 H     5 NME     0.0976 ****
@<TRIPOS>BOND
    1     5     6 1
    2     5     7 1
    3     2     3 1
    4     2     4 1
    5     2     5 1
    6     1     2 1
    7    12    13 1
    8    12    14 1
    9     9    10 1
   10     9    11 1
   11     9    12 1
   12     7     8 1
   13     7     9 1
   14    22    23 1
   15    22    24 1
   16    18    19 1
   17    18    20 1
   18    18    21 1
   19    16    17 1
   20    16    18 1
   21    16    22 1
   22    14    15 1
   23    14    16 1
   24    32    33 1
   25    32    34 1
   26    28    29 1
   27    28    30 1
   28    28    31 1
   29    26    27 1
   30    26    28 1
   31    26    32 1
   32    24    25 1
   33    24    26 1
   34    36    37 1
   35    36    38 1
   36    36    39 1
   37    34    35 1
   38    34    36 1
@<TRIPOS>SUBSTRUCTURE
      1  ACE              1 ****               0 ****  **** 
      2  GLY              7 ****               0 ****  **** 
      3  ALA             14 ****               0 ****  **** 
      4  ALA             24 ****               0 ****  **** 
      5  NME             34 ****               0 ****  **** 
