@<TRIPOS>MOLECULE
default_name
   39    38     5     0     1 
SMALL
USER_CHARGES
@<TRIPOS>ATOM
  1 H1     25.302000   27.891000   22.925000 H     1 ACE     0.1123 ****
  2 CH3    26.320000   27.611000   22.655000 C     1 ACE    -0.3662 ****
  3 H2     26.568000   28.034000   21.684000 H     1 ACE     0.1123 ****
  4 H3     26.403000   26.526000   22.621000 H     1 ACE     0.1123 ****
  5 C      27.270000   28.155000   23.696000 C     1 ACE     0.5972 ****
  6 O      26.841000   28.796000   24.647000 O     1 ACE    -0.5679 ****
  7 N      28.564000   27.901000   23.516000 N     2 GLY    -0.4157 ****
  8 H      28.843000   27.393000   22.692000 H     2 GLY     0.2719 ****
  9 CA     29.620000   28.409000   24.397000 C     2 GLY    -0.0252 ****
 10 HA2    29.324000   28.283000   25.439000 H     2 GLY     0.0698 ****
 11 HA3    30.534000   27.840000   24.232000 H     2 GLY     0.0698 ****
 12 C      29.929000   29.885000   24.136000 C     2 GLY     0.5973 ****
 13 O      30.688000   30.186000   23.221000 O     2 GLY    -0.5679 ****
 14 N      29.275000   30.779000   24.887000 N     3 ALA    -0.4157 ****
 15 H      28.552000   30.395000   25.475000 H     3 ALA     0.2719 ****
 16 CA     29.658000   32.164000   25.201000 C     3 ALA     0.0337 ****
 17 HA     28.893000   32.803000   24.760000 H     3 ALA     0.0823 ****
 18 CB     29.578000   32.346000   26.723000 C     3 ALA    -0.1825 ****
 19 HB1    30.320000   31.712000   27.210000 H     3 ALA     0.0603 ****
 20 HB2    29.778000   33.387000   26.980000 H     3 ALA     0.0603 ****
 21 HB3    28.582000   32.079000   27.080000 H     3 ALA     0.0603 ****
 22 C      31.020000   32.663000   24.659000 C     3 ALA     0.5973 ****
 23 O      32.062000   32.059000   24.908000 O     3 ALA    -0.5679 ****
 24 N      31.034000   33.871000   24.090000 N     4 ALA    -0.4157 ****
 25 H      30.167000   34.379000   23.992000 H     4 ALA     0.2719 ****
 26 CA     32.234000   34.540000   23.586000 C     4 ALA     0.0337 ****
 27 HA     33.081000   34.273000   24.221000 H     4 ALA     0.0823 ****
 28 CB     32.515000   34.038000   22.162000 C     4 ALA    -0.1825 ****
 29 HB1    31.682000   34.295000   21.506000 H     4 ALA     0.0603 ****
 30 HB2    33.427000   34.494000   21.778000 H     4 ALA     0.0603 ****
 31 HB3    32.641000   32.954000   22.171000 H     4 ALA     0.0603 ****
 32 C      32.072000   36.071000   23.628000 C     4 ALA     0.5973 ****
 33 O      30.954000   36.579000   23.706000 O     4 ALA    -0.5679 ****
 34 N      33.192000   36.803000   23.565000 N     5 NME    -0.4157 ****
 35 H      34.071000   36.313000   23.495000 H     5 NME     0.2719 ****
 36 CH3    33.216000   38.264000   23.585000 C     5 NME    -0.1490 ****
 37 HH31   32.763000   38.627000   24.510000 H     5 NME     0.0976 ****
 38 HH32   34.242000   38.628000   23.520000 H     5 NME     0.0976 ****
 39 HH33   32.642000   38.653000   22.742000 H     5 NME     0.0976 ****
@<TRIPOS>BOND
    1     5     6 1
    2     5     7 1
    3     2     3 1
    4     2     4 1
    5     2     5 1
    6     1     2 1
    7    12    13 1
    8    12    14 1
    9     9    10 1
   10     9    11 1
   11     9    12 1
   12     7     8 1
   13     7     9 1
   14    22    23 1
   15    22    24 1
   16    18    19 1
   17    18    20 1
   18    18    21 1
   19    16    17 1
   20    16    18 1
   21    16    22 1
   22    14    15 1
   23    14    16 1
   24    32    33 1
   25    32    34 1
   26    28    29 1
   27    28    30 1
   28    28    31 1
   29    26    27 1
   30    26    28 1
   31    26    32 1
   32    24    25 1
   33    24    26 1
   34    36    37 1
   35    36    38 1
   36    36    39 1
   37    34    35 1
   38    34    36 1
@<TRIPOS>SUBSTRUCTURE
      1  ACE              1 ****               0 ****  **** 
      2  GLY              7 ****               0 ****  **** 
      3  ALA             14 ****               0 ****  **** 
      4  ALA             24 ****               0 ****  **** 
      5  NME             34 ****               0 ****  **** 
