@<TRIPOS>MOLECULE
default_name
   39    38     5     0     1 
SMALL
USER_CHARGES
@<TRIPOS>ATOM
  1 H1     27.423000   27.234000   25.100000 H     1 ACE     0.1123 ****
  2 CH3    26.973000   27.928000   24.391000 C     1 ACE    -0.3662 ****
  3 H2     26.193000   28.502000   24.889000 H     1 ACE     0.1123 ****
  4 H3     26.550000   27.369000   23.558000 H     1 ACE     0.1123 ****
  5 C      28.042000   28.862000   23.876000 C     1 ACE     0.5972 ****
  6 O      29.193000   28.760000   24.273000 O     1 ACE    -0.5679 ****
  7 N      27.655000   29.800000   23.011000 N     2 GLY    -0.4157 ****
  8 H      26.684000   29.816000   22.740000 H     2 GLY     0.2719 ****
  9 CA     28.574000   30.722000   22.322000 C     2 GLY    -0.0252 ****
 10 HA2    29.384000   30.137000   21.883000 H     2 GLY     0.0698 ****
 11 HA3    28.038000   31.209000   21.508000 H     2 GLY     0.0698 ****
 12 C      29.222000   31.825000   23.177000 C     2 GLY     0.5973 ****
 13 O      29.859000   32.699000   22.606000 O     2 GLY    -0.5679 ****
 14 N      28.997000   31.822000   24.497000 N     3 ALA    -0.4157 ****
 15 H      28.414000   31.062000   24.805000 H     3 ALA     0.2719 ****
 16 CA     29.643000   32.551000   25.606000 C     3 ALA     0.0337 ****
 17 HA     28.871000   33.172000   26.063000 H     3 ALA     0.0823 ****
 18 CB     30.046000   31.498000   26.648000 C     3 ALA    -0.1825 ****
 19 HB1    30.800000   30.828000   26.232000 H     3 ALA     0.0603 ****
 20 HB2    30.456000   31.993000   27.530000 H     3 ALA     0.0603 ****
 21 HB3    29.176000   30.913000   26.948000 H     3 ALA     0.0603 ****
 22 C      30.833000   33.509000   25.345000 C     3 ALA     0.5973 ****
 23 O      30.842000   34.606000   25.895000 O     3 ALA    -0.5679 ****
 24 N      31.831000   33.127000   24.542000 N     4 ALA    -0.4157 ****
 25 H      31.769000   32.221000   24.108000 H     4 ALA     0.2719 ****
 26 CA     33.058000   33.899000   24.302000 C     4 ALA     0.0337 ****
 27 HA     33.430000   34.248000   25.267000 H     4 ALA     0.0823 ****
 28 CB     34.099000   32.936000   23.713000 C     4 ALA    -0.1825 ****
 29 HB1    33.769000   32.583000   22.736000 H     4 ALA     0.0603 ****
 30 HB2    35.052000   33.454000   23.598000 H     4 ALA     0.0603 ****
 31 HB3    34.242000   32.086000   24.381000 H     4 ALA     0.0603 ****
 32 C      32.894000   35.165000   23.422000 C     4 ALA     0.5973 ****
 33 O      33.878000   35.859000   23.173000 O     4 ALA    -0.5679 ****
 34 N      31.683000   35.464000   22.935000 N     5 NME    -0.4157 ****
 35 H      30.921000   34.858000   23.194000 H     5 NME     0.2719 ****
 36 CH3    31.392000   36.620000   22.091000 C     5 NME    -0.1490 ****
 37 HH31   31.568000   37.538000   22.655000 H     5 NME     0.0976 ****
 38 HH32   32.050000   36.613000   21.219000 H     5 NME     0.0976 ****
 39 HH33   30.354000   36.590000   21.760000 H     5 NME     0.0976 ****
@<TRIPOS>BOND
    1     5     6 1
    2     5     7 1
    3     2     3 1
    4     2     4 1
    5     2     5 1
    6     1     2 1
    7    12    13 1
    8    12    14 1
    9     9    10 1
   10     9    11 1
   11     9    12 1
   12     7     8 1
   13     7     9 1
   14    22    23 1
   15    22    24 1
   16    18    19 1
   17    18    20 1
   18    18    21 1
   19    16    17 1
   20    16    18 1
   21    16    22 1
   22    14    15 1
   23    14    16 1
   24    32    33 1
   25    32    34 1
   26    28    29 1
   27    28    30 1
   28    28    31 1
   29    26    27 1
   30    26    28 1
   31    26    32 1
   32    24    25 1
   33    24    26 1
   34    36    37 1
   35    36    38 1
   36    36    39 1
   37    34    35 1
   38    34    36 1
@<TRIPOS>SUBSTRUCTURE
      1  ACE              1 ****               0 ****  **** 
      2  GLY              7 ****               0 ****  **** 
      3  ALA             14 ****               0 ****  **** 
      4  ALA             24 ****               0 ****  **** 
      5  NME             34 ****               0 ****  **** 
