@<TRIPOS>MOLECULE
default_name
   39    38     5     0     1 
SMALL
USER_CHARGES
@<TRIPOS>ATOM
  1 H1     26.367000   31.810000   22.099000 H     1 ACE     0.1123 ****
  2 CH3    26.600000   30.776000   22.353000 C     1 ACE    -0.3662 ****
  3 H2     26.307000   30.127000   21.529000 H     1 ACE     0.1123 ****
  4 H3     26.063000   30.497000   23.257000 H     1 ACE     0.1123 ****
  5 C      28.087000   30.653000   22.585000 C     1 ACE     0.5972 ****
  6 O      28.812000   31.631000   22.472000 O     1 ACE    -0.5679 ****
  7 N      28.543000   29.453000   22.945000 N     2 GLY    -0.4157 ****
  8 H      27.878000   28.700000   23.020000 H     2 GLY     0.2719 ****
  9 CA     29.973000   29.127000   23.097000 C     2 GLY    -0.0252 ****
 10 HA2    30.070000   28.059000   23.289000 H     2 GLY     0.0698 ****
 11 HA3    30.480000   29.346000   22.156000 H     2 GLY     0.0698 ****
 12 C      30.733000   29.868000   24.210000 C     2 GLY     0.5973 ****
 13 O      31.948000   29.728000   24.282000 O     2 GLY    -0.5679 ****
 14 N      30.036000   30.666000   25.029000 N     3 ALA    -0.4157 ****
 15 H      29.059000   30.769000   24.805000 H     3 ALA     0.2719 ****
 16 CA     30.530000   31.532000   26.105000 C     3 ALA     0.0337 ****
 17 HA     29.723000   31.528000   26.839000 H     3 ALA     0.0823 ****
 18 CB     31.734000   30.989000   26.897000 C     3 ALA    -0.1825 ****
 19 HB1    32.647000   31.043000   26.304000 H     3 ALA     0.0603 ****
 20 HB2    31.873000   31.585000   27.800000 H     3 ALA     0.0603 ****
 21 HB3    31.553000   29.953000   27.184000 H     3 ALA     0.0603 ****
 22 C      30.586000   33.000000   25.660000 C     3 ALA     0.5973 ****
 23 O      29.610000   33.727000   25.809000 O     3 ALA    -0.5679 ****
 24 N      31.725000   33.428000   25.111000 N     4 ALA    -0.4157 ****
 25 H      32.466000   32.754000   24.988000 H     4 ALA     0.2719 ****
 26 CA     31.988000   34.811000   24.696000 C     4 ALA     0.0337 ****
 27 HA     31.625000   35.471000   25.486000 H     4 ALA     0.0823 ****
 28 CB     33.512000   34.981000   24.604000 C     4 ALA    -0.1825 ****
 29 HB1    33.910000   34.357000   23.803000 H     4 ALA     0.0603 ****
 30 HB2    33.752000   36.024000   24.391000 H     4 ALA     0.0603 ****
 31 HB3    33.978000   34.703000   25.550000 H     4 ALA     0.0603 ****
 32 C      31.278000   35.270000   23.396000 C     4 ALA     0.5973 ****
 33 O      31.539000   36.377000   22.928000 O     4 ALA    -0.5679 ****
 34 N      30.411000   34.445000   22.792000 N     5 NME    -0.4157 ****
 35 H      30.199000   33.563000   23.235000 H     5 NME     0.2719 ****
 36 CH3    29.699000   34.768000   21.557000 C     5 NME    -0.1490 ****
 37 HH31   30.416000   35.027000   20.776000 H     5 NME     0.0976 ****
 38 HH32   29.106000   33.912000   21.233000 H     5 NME     0.0976 ****
 39 HH33   29.040000   35.621000   21.727000 H     5 NME     0.0976 ****
@<TRIPOS>BOND
    1     5     6 1
    2     5     7 1
    3     2     3 1
    4     2     4 1
    5     2     5 1
    6     1     2 1
    7    12    13 1
    8    12    14 1
    9     9    10 1
   10     9    11 1
   11     9    12 1
   12     7     8 1
   13     7     9 1
   14    22    23 1
   15    22    24 1
   16    18    19 1
   17    18    20 1
   18    18    21 1
   19    16    17 1
   20    16    18 1
   21    16    22 1
   22    14    15 1
   23    14    16 1
   24    32    33 1
   25    32    34 1
   26    28    29 1
   27    28    30 1
   28    28    31 1
   29    26    27 1
   30    26    28 1
   31    26    32 1
   32    24    25 1
   33    24    26 1
   34    36    37 1
   35    36    38 1
   36    36    39 1
   37    34    35 1
   38    34    36 1
@<TRIPOS>SUBSTRUCTURE
      1  ACE              1 ****               0 ****  **** 
      2  GLY              7 ****               0 ****  **** 
      3  ALA             14 ****               0 ****  **** 
      4  ALA             24 ****               0 ****  **** 
      5  NME             34 ****               0 ****  **** 
