@<TRIPOS>MOLECULE
default_name
   39    38     5     0     1 
SMALL
USER_CHARGES
@<TRIPOS>ATOM
  1 H1     29.155000   28.834000   20.981000 H     1 ACE     0.1123 ****
  2 CH3    29.614000   28.356000   21.845000 C     1 ACE    -0.3662 ****
  3 H2     30.672000   28.611000   21.883000 H     1 ACE     0.1123 ****
  4 H3     29.492000   27.277000   21.775000 H     1 ACE     0.1123 ****
  5 C      28.938000   28.858000   23.099000 C     1 ACE     0.5972 ****
  6 O      28.038000   29.686000   23.024000 O     1 ACE    -0.5679 ****
  7 N      29.374000   28.357000   24.254000 N     2 GLY    -0.4157 ****
  8 H      30.143000   27.707000   24.230000 H     2 GLY     0.2719 ****
  9 CA     28.903000   28.809000   25.567000 C     2 GLY    -0.0252 ****
 10 HA2    27.815000   28.892000   25.562000 H     2 GLY     0.0698 ****
 11 HA3    29.189000   28.081000   26.325000 H     2 GLY     0.0698 ****
 12 C      29.513000   30.159000   25.946000 C     2 GLY     0.5973 ****
 13 O      30.578000   30.184000   26.551000 O     2 GLY    -0.5679 ****
 14 N      28.825000   31.247000   25.578000 N     3 ALA    -0.4157 ****
 15 H      27.968000   31.074000   25.076000 H     3 ALA     0.2719 ****
 16 CA     29.294000   32.638000   25.599000 C     3 ALA     0.0337 ****
 17 HA     28.406000   33.236000   25.395000 H     3 ALA     0.0823 ****
 18 CB     29.758000   33.087000   26.993000 C     3 ALA    -0.1825 ****
 19 HB1    30.710000   32.619000   27.243000 H     3 ALA     0.0603 ****
 20 HB2    29.894000   34.169000   27.001000 H     3 ALA     0.0603 ****
 21 HB3    29.013000   32.815000   27.742000 H     3 ALA     0.0603 ****
 22 C      30.282000   32.957000   24.456000 C     3 ALA     0.5973 ****
 23 O      31.352000   32.364000   24.343000 O     3 ALA    -0.5679 ****
 24 N      29.916000   33.903000   23.585000 N     4 ALA    -0.4157 ****
 25 H      29.037000   34.373000   23.717000 H     4 ALA     0.2719 ****
 26 CA     30.770000   34.373000   22.494000 C     4 ALA     0.0337 ****
 27 HA     31.277000   33.515000   22.046000 H     4 ALA     0.0823 ****
 28 CB     29.873000   34.999000   21.416000 C     4 ALA    -0.1825 ****
 29 HB1    29.329000   35.851000   21.827000 H     4 ALA     0.0603 ****
 30 HB2    30.489000   35.343000   20.585000 H     4 ALA     0.0603 ****
 31 HB3    29.162000   34.258000   21.048000 H     4 ALA     0.0603 ****
 32 C      31.853000   35.344000   23.013000 C     4 ALA     0.5973 ****
 33 O      31.625000   36.550000   23.096000 O     4 ALA    -0.5679 ****
 34 N      33.027000   34.812000   23.375000 N     5 NME    -0.4157 ****
 35 H      33.113000   33.806000   23.348000 H     5 NME     0.2719 ****
 36 CH3    34.153000   35.584000   23.896000 C     5 NME    -0.1490 ****
 37 HH31   33.849000   36.111000   24.802000 H     5 NME     0.0976 ****
 38 HH32   34.987000   34.921000   24.129000 H     5 NME     0.0976 ****
 39 HH33   34.471000   36.319000   23.154000 H     5 NME     0.0976 ****
@<TRIPOS>BOND
    1     5     6 1
    2     5     7 1
    3     2     3 1
    4     2     4 1
    5     2     5 1
    6     1     2 1
    7    12    13 1
    8    12    14 1
    9     9    10 1
   10     9    11 1
   11     9    12 1
   12     7     8 1
   13     7     9 1
   14    22    23 1
   15    22    24 1
   16    18    19 1
   17    18    20 1
   18    18    21 1
   19    16    17 1
   20    16    18 1
   21    16    22 1
   22    14    15 1
   23    14    16 1
   24    32    33 1
   25    32    34 1
   26    28    29 1
   27    28    30 1
   28    28    31 1
   29    26    27 1
   30    26    28 1
   31    26    32 1
   32    24    25 1
   33    24    26 1
   34    36    37 1
   35    36    38 1
   36    36    39 1
   37    34    35 1
   38    34    36 1
@<TRIPOS>SUBSTRUCTURE
      1  ACE              1 ****               0 ****  **** 
      2  GLY              7 ****               0 ****  **** 
      3  ALA             14 ****               0 ****  **** 
      4  ALA             24 ****               0 ****  **** 
      5  NME             34 ****               0 ****  **** 
