@<TRIPOS>MOLECULE
default_name
   39    38     5     0     1 
SMALL
USER_CHARGES
@<TRIPOS>ATOM
  1 H1     26.016000   27.162000   21.216000 H     1 ACE     0.1123 ****
  2 CH3    26.169000   28.144000   21.661000 C     1 ACE    -0.3662 ****
  3 H2     25.290000   28.426000   22.236000 H     1 ACE     0.1123 ****
  4 H3     26.352000   28.876000   20.878000 H     1 ACE     0.1123 ****
  5 C      27.368000   28.084000   22.578000 C     1 ACE     0.5972 ****
  6 O      27.988000   27.037000   22.716000 O     1 ACE    -0.5679 ****
  7 N      27.696000   29.209000   23.207000 N     2 GLY    -0.4157 ****
  8 H      27.143000   30.040000   23.051000 H     2 GLY     0.2719 ****
  9 CA     28.828000   29.334000   24.125000 C     2 GLY    -0.0252 ****
 10 HA2    28.714000   28.617000   24.938000 H     2 GLY     0.0698 ****
 11 HA3    29.750000   29.105000   23.590000 H     2 GLY     0.0698 ****
 12 C      28.944000   30.740000   24.720000 C     2 GLY     0.5973 ****
 13 O      28.102000   31.597000   24.464000 O     2 GLY    -0.5679 ****
 14 N      29.971000   30.957000   25.549000 N     3 ALA    -0.4157 ****
 15 H      30.594000   30.189000   25.735000 H     3 ALA     0.2719 ****
 16 CA     30.382000   32.289000   26.000000 C     3 ALA     0.0337 ****
 17 HA     29.486000   32.865000   26.241000 H     3 ALA     0.0823 ****
 18 CB     31.179000   32.103000   27.305000 C     3 ALA    -0.1825 ****
 19 HB1    32.108000   31.565000   27.109000 H     3 ALA     0.0603 ****
 20 HB2    31.401000   33.073000   27.750000 H     3 ALA     0.0603 ****
 21 HB3    30.582000   31.533000   28.019000 H     3 ALA     0.0603 ****
 22 C      31.128000   33.082000   24.891000 C     3 ALA     0.5973 ****
 23 O      30.736000   33.049000   23.728000 O     3 ALA    -0.5679 ****
 24 N      32.247000   33.735000   25.233000 N     4 ALA    -0.4157 ****
 25 H      32.515000   33.698000   26.202000 H     4 ALA     0.2719 ****
 26 CA     33.047000   34.616000   24.371000 C     4 ALA     0.0337 ****
 27 HA     33.815000   35.048000   25.013000 H     4 ALA     0.0823 ****
 28 CB     33.811000   33.802000   23.312000 C     4 ALA    -0.1825 ****
 29 HB1    33.117000   33.316000   22.625000 H     4 ALA     0.0603 ****
 30 HB2    34.466000   34.464000   22.745000 H     4 ALA     0.0603 ****
 31 HB3    34.418000   33.039000   23.800000 H     4 ALA     0.0603 ****
 32 C      32.273000   35.838000   23.828000 C     4 ALA     0.5973 ****
 33 O      32.295000   36.886000   24.469000 O     4 ALA    -0.5679 ****
 34 N      31.607000   35.724000   22.672000 N     5 NME    -0.4157 ****
 35 H      31.596000   34.819000   22.227000 H     5 NME     0.2719 ****
 36 CH3    30.828000   36.799000   22.062000 C     5 NME    -0.1490 ****
 37 HH31   30.024000   37.097000   22.738000 H     5 NME     0.0976 ****
 38 HH32   31.470000   37.663000   21.878000 H     5 NME     0.0976 ****
 39 HH33   30.396000   36.461000   21.119000 H     5 NME     0.0976 ****
@<TRIPOS>BOND
    1     5     6 1
    2     5     7 1
    3     2     3 1
    4     2     4 1
    5     2     5 1
    6     1     2 1
    7    12    13 1
    8    12    14 1
    9     9    10 1
   10     9    11 1
   11     9    12 1
   12     7     8 1
   13     7     9 1
   14    22    23 1
   15    22    24 1
   16    18    19 1
   17    18    20 1
   18    18    21 1
   19    16    17 1
   20    16    18 1
   21    16    22 1
   22    14    15 1
   23    14    16 1
   24    32    33 1
   25    32    34 1
   26    28    29 1
   27    28    30 1
   28    28    31 1
   29    26    27 1
   30    26    28 1
   31    26    32 1
   32    24    25 1
   33    24    26 1
   34    36    37 1
   35    36    38 1
   36    36    39 1
   37    34    35 1
   38    34    36 1
@<TRIPOS>SUBSTRUCTURE
      1  ACE              1 ****               0 ****  **** 
      2  GLY              7 ****               0 ****  **** 
      3  ALA             14 ****               0 ****  **** 
      4  ALA             24 ****               0 ****  **** 
      5  NME             34 ****               0 ****  **** 
