@<TRIPOS>MOLECULE
default_name
   39    38     5     0     1 
SMALL
USER_CHARGES
@<TRIPOS>ATOM
  1 H1     25.192000   28.786000   24.108000 H     1 ACE     0.1123 ****
  2 CH3    25.821000   29.041000   23.255000 C     1 ACE    -0.3662 ****
  3 H2     25.476000   29.975000   22.816000 H     1 ACE     0.1123 ****
  4 H3     25.774000   28.242000   22.517000 H     1 ACE     0.1123 ****
  5 C      27.245000   29.205000   23.729000 C     1 ACE     0.5972 ****
  6 O      27.525000   29.052000   24.911000 O     1 ACE    -0.5679 ****
  7 N      28.153000   29.520000   22.807000 N     2 GLY    -0.4157 ****
  8 H      27.843000   29.654000   21.858000 H     2 GLY     0.2719 ****
  9 CA     29.565000   29.766000   23.114000 C     2 GLY    -0.0252 ****
 10 HA2    29.927000   29.007000   23.809000 H     2 GLY     0.0698 ****
 11 HA3    30.150000   29.694000   22.198000 H     2 GLY     0.0698 ****
 12 C      29.793000   31.154000   23.719000 C     2 GLY     0.5973 ****
 13 O      29.869000   32.128000   22.976000 O     2 GLY    -0.5679 ****
 14 N      29.804000   31.242000   25.054000 N     3 ALA    -0.4157 ****
 15 H      29.515000   30.397000   25.524000 H     3 ALA     0.2719 ****
 16 CA     30.376000   32.253000   25.967000 C     3 ALA     0.0337 ****
 17 HA     29.552000   32.923000   26.216000 H     3 ALA     0.0823 ****
 18 CB     30.737000   31.506000   27.260000 C     3 ALA    -0.1825 ****
 19 HB1    31.567000   30.821000   27.078000 H     3 ALA     0.0603 ****
 20 HB2    31.033000   32.222000   28.030000 H     3 ALA     0.0603 ****
 21 HB3    29.876000   30.945000   27.626000 H     3 ALA     0.0603 ****
 22 C      31.537000   33.207000   25.558000 C     3 ALA     0.5973 ****
 23 O      31.805000   34.136000   26.313000 O     3 ALA    -0.5679 ****
 24 N      32.169000   33.103000   24.383000 N     4 ALA    -0.4157 ****
 25 H      32.106000   32.244000   23.871000 H     4 ALA     0.2719 ****
 26 CA     33.106000   34.104000   23.860000 C     4 ALA     0.0337 ****
 27 HA     33.746000   34.448000   24.675000 H     4 ALA     0.0823 ****
 28 CB     33.992000   33.410000   22.816000 C     4 ALA    -0.1825 ****
 29 HB1    33.383000   33.065000   21.979000 H     4 ALA     0.0603 ****
 30 HB2    34.735000   34.117000   22.444000 H     4 ALA     0.0603 ****
 31 HB3    34.509000   32.563000   23.268000 H     4 ALA     0.0603 ****
 32 C      32.425000   35.360000   23.267000 C     4 ALA     0.5973 ****
 33 O      33.105000   36.344000   22.984000 O     4 ALA    -0.5679 ****
 34 N      31.101000   35.331000   23.059000 N     5 NME    -0.4157 ****
 35 H      30.613000   34.478000   23.290000 H     5 NME     0.2719 ****
 36 CH3    30.326000   36.445000   22.518000 C     5 NME    -0.1490 ****
 37 HH31   30.740000   36.747000   21.554000 H     5 NME     0.0976 ****
 38 HH32   29.284000   36.149000   22.387000 H     5 NME     0.0976 ****
 39 HH33   30.379000   37.294000   23.202000 H     5 NME     0.0976 ****
@<TRIPOS>BOND
    1     5     6 1
    2     5     7 1
    3     2     3 1
    4     2     4 1
    5     2     5 1
    6     1     2 1
    7    12    13 1
    8    12    14 1
    9     9    10 1
   10     9    11 1
   11     9    12 1
   12     7     8 1
   13     7     9 1
   14    22    23 1
   15    22    24 1
   16    18    19 1
   17    18    20 1
   18    18    21 1
   19    16    17 1
   20    16    18 1
   21    16    22 1
   22    14    15 1
   23    14    16 1
   24    32    33 1
   25    32    34 1
   26    28    29 1
   27    28    30 1
   28    28    31 1
   29    26    27 1
   30    26    28 1
   31    26    32 1
   32    24    25 1
   33    24    26 1
   34    36    37 1
   35    36    38 1
   36    36    39 1
   37    34    35 1
   38    34    36 1
@<TRIPOS>SUBSTRUCTURE
      1  ACE              1 ****               0 ****  **** 
      2  GLY              7 ****               0 ****  **** 
      3  ALA             14 ****               0 ****  **** 
      4  ALA             24 ****               0 ****  **** 
      5  NME             34 ****               0 ****  **** 
