@<TRIPOS>MOLECULE
default_name
   39    38     5     0     1 
SMALL
USER_CHARGES
@<TRIPOS>ATOM
  1 H1     26.254000   24.901000   23.708000 H     1 ACE     0.1123 ****
  2 CH3    26.214000   25.978000   23.552000 C     1 ACE    -0.3662 ****
  3 H2     25.375000   26.397000   24.105000 H     1 ACE     0.1123 ****
  4 H3     26.104000   26.191000   22.491000 H     1 ACE     0.1123 ****
  5 C      27.500000   26.592000   24.055000 C     1 ACE     0.5972 ****
  6 O      28.372000   25.885000   24.539000 O     1 ACE    -0.5679 ****
  7 N      27.616000   27.912000   23.939000 N     2 GLY    -0.4157 ****
  8 H      26.857000   28.438000   23.530000 H     2 GLY     0.2719 ****
  9 CA     28.788000   28.674000   24.371000 C     2 GLY    -0.0252 ****
 10 HA2    28.951000   28.512000   25.437000 H     2 GLY     0.0698 ****
 11 HA3    29.668000   28.319000   23.833000 H     2 GLY     0.0698 ****
 12 C      28.633000   30.177000   24.122000 C     2 GLY     0.5973 ****
 13 O      27.611000   30.623000   23.601000 O     2 GLY    -0.5679 ****
 14 N      29.651000   30.956000   24.491000 N     3 ALA    -0.4157 ****
 15 H      30.481000   30.526000   24.873000 H     3 ALA     0.2719 ****
 16 CA     29.702000   32.408000   24.309000 C     3 ALA     0.0337 ****
 17 HA     29.181000   32.672000   23.387000 H     3 ALA     0.0823 ****
 18 CB     28.979000   33.078000   25.488000 C     3 ALA    -0.1825 ****
 19 HB1    29.484000   32.832000   26.424000 H     3 ALA     0.0603 ****
 20 HB2    28.975000   34.161000   25.358000 H     3 ALA     0.0603 ****
 21 HB3    27.946000   32.730000   25.536000 H     3 ALA     0.0603 ****
 22 C      31.159000   32.896000   24.188000 C     3 ALA     0.5973 ****
 23 O      32.093000   32.158000   24.500000 O     3 ALA    -0.5679 ****
 24 N      31.349000   34.145000   23.758000 N     4 ALA    -0.4157 ****
 25 H      30.543000   34.723000   23.564000 H     4 ALA     0.2719 ****
 26 CA     32.653000   34.793000   23.616000 C     4 ALA     0.0337 ****
 27 HA     33.324000   34.415000   24.389000 H     4 ALA     0.0823 ****
 28 CB     33.239000   34.432000   22.242000 C     4 ALA    -0.1825 ****
 29 HB1    32.584000   34.798000   21.450000 H     4 ALA     0.0603 ****
 30 HB2    34.225000   34.881000   22.127000 H     4 ALA     0.0603 ****
 31 HB3    33.336000   33.348000   22.154000 H     4 ALA     0.0603 ****
 32 C      32.531000   36.318000   23.797000 C     4 ALA     0.5973 ****
 33 O      31.437000   36.870000   23.688000 O     4 ALA    -0.5679 ****
 34 N      33.656000   36.994000   24.065000 N     5 NME    -0.4157 ****
 35 H      34.516000   36.472000   24.133000 H     5 NME     0.2719 ****
 36 CH3    33.711000   38.442000   24.259000 C     5 NME    -0.1490 ****
 37 HH31   33.073000   38.726000   25.097000 H     5 NME     0.0976 ****
 38 HH32   34.735000   38.759000   24.462000 H     5 NME     0.0976 ****
 39 HH33   33.349000   38.948000   23.361000 H     5 NME     0.0976 ****
@<TRIPOS>BOND
    1     5     6 1
    2     5     7 1
    3     2     3 1
    4     2     4 1
    5     2     5 1
    6     1     2 1
    7    12    13 1
    8    12    14 1
    9     9    10 1
   10     9    11 1
   11     9    12 1
   12     7     8 1
   13     7     9 1
   14    22    23 1
   15    22    24 1
   16    18    19 1
   17    18    20 1
   18    18    21 1
   19    16    17 1
   20    16    18 1
   21    16    22 1
   22    14    15 1
   23    14    16 1
   24    32    33 1
   25    32    34 1
   26    28    29 1
   27    28    30 1
   28    28    31 1
   29    26    27 1
   30    26    28 1
   31    26    32 1
   32    24    25 1
   33    24    26 1
   34    36    37 1
   35    36    38 1
   36    36    39 1
   37    34    35 1
   38    34    36 1
@<TRIPOS>SUBSTRUCTURE
      1  ACE              1 ****               0 ****  **** 
      2  GLY              7 ****               0 ****  **** 
      3  ALA             14 ****               0 ****  **** 
      4  ALA             24 ****               0 ****  **** 
      5  NME             34 ****               0 ****  **** 
