@<TRIPOS>MOLECULE
default_name
   39    38     5     0     1 
SMALL
USER_CHARGES
@<TRIPOS>ATOM
  1 H1     25.601000   28.649000   22.574000 H     1 ACE     0.1123 ****
  2 CH3    26.616000   28.478000   22.217000 C     1 ACE    -0.3662 ****
  3 H2     26.848000   29.188000   21.426000 H     1 ACE     0.1123 ****
  4 H3     26.704000   27.460000   21.843000 H     1 ACE     0.1123 ****
  5 C      27.577000   28.676000   23.365000 C     1 ACE     0.5972 ****
  6 O      27.159000   28.982000   24.475000 O     1 ACE    -0.5679 ****
  7 N      28.871000   28.503000   23.100000 N     2 GLY    -0.4157 ****
  8 H      29.140000   28.279000   22.156000 H     2 GLY     0.2719 ****
  9 CA     29.934000   28.712000   24.088000 C     2 GLY    -0.0252 ****
 10 HA2    29.658000   28.241000   25.032000 H     2 GLY     0.0698 ****
 11 HA3    30.854000   28.247000   23.732000 H     2 GLY     0.0698 ****
 12 C      30.216000   30.197000   24.329000 C     2 GLY     0.5973 ****
 13 O      30.997000   30.783000   23.590000 O     2 GLY    -0.5679 ****
 14 N      29.556000   30.775000   25.340000 N     3 ALA    -0.4157 ****
 15 H      28.876000   30.191000   25.803000 H     3 ALA     0.2719 ****
 16 CA     29.728000   32.117000   25.916000 C     3 ALA     0.0337 ****
 17 HA     28.903000   32.729000   25.549000 H     3 ALA     0.0823 ****
 18 CB     29.548000   31.993000   27.437000 C     3 ALA    -0.1825 ****
 19 HB1    30.333000   31.361000   27.854000 H     3 ALA     0.0603 ****
 20 HB2    29.611000   32.981000   27.894000 H     3 ALA     0.0603 ****
 21 HB3    28.574000   31.558000   27.665000 H     3 ALA     0.0603 ****
 22 C      31.028000   32.872000   25.540000 C     3 ALA     0.5973 ****
 23 O      32.024000   32.811000   26.261000 O     3 ALA    -0.5679 ****
 24 N      31.002000   33.615000   24.431000 N     4 ALA    -0.4157 ****
 25 H      30.166000   33.614000   23.866000 H     4 ALA     0.2719 ****
 26 CA     32.127000   34.396000   23.919000 C     4 ALA     0.0337 ****
 27 HA     32.721000   34.754000   24.762000 H     4 ALA     0.0823 ****
 28 CB     33.009000   33.482000   23.056000 C     4 ALA    -0.1825 ****
 29 HB1    32.433000   33.103000   22.210000 H     4 ALA     0.0603 ****
 30 HB2    33.874000   34.032000   22.687000 H     4 ALA     0.0603 ****
 31 HB3    33.356000   32.636000   23.652000 H     4 ALA     0.0603 ****
 32 C      31.639000   35.625000   23.129000 C     4 ALA     0.5973 ****
 33 O      30.484000   35.684000   22.707000 O     4 ALA    -0.5679 ****
 34 N      32.529000   36.605000   22.921000 N     5 NME    -0.4157 ****
 35 H      33.458000   36.481000   23.290000 H     5 NME     0.2719 ****
 36 CH3    32.235000   37.834000   22.187000 C     5 NME    -0.1490 ****
 37 HH31   31.420000   38.370000   22.678000 H     5 NME     0.0976 ****
 38 HH32   33.117000   38.475000   22.151000 H     5 NME     0.0976 ****
 39 HH33   31.925000   37.590000   21.169000 H     5 NME     0.0976 ****
@<TRIPOS>BOND
    1     5     6 1
    2     5     7 1
    3     2     3 1
    4     2     4 1
    5     2     5 1
    6     1     2 1
    7    12    13 1
    8    12    14 1
    9     9    10 1
   10     9    11 1
   11     9    12 1
   12     7     8 1
   13     7     9 1
   14    22    23 1
   15    22    24 1
   16    18    19 1
   17    18    20 1
   18    18    21 1
   19    16    17 1
   20    16    18 1
   21    16    22 1
   22    14    15 1
   23    14    16 1
   24    32    33 1
   25    32    34 1
   26    28    29 1
   27    28    30 1
   28    28    31 1
   29    26    27 1
   30    26    28 1
   31    26    32 1
   32    24    25 1
   33    24    26 1
   34    36    37 1
   35    36    38 1
   36    36    39 1
   37    34    35 1
   38    34    36 1
@<TRIPOS>SUBSTRUCTURE
      1  ACE              1 ****               0 ****  **** 
      2  GLY              7 ****               0 ****  **** 
      3  ALA             14 ****               0 ****  **** 
      4  ALA             24 ****               0 ****  **** 
      5  NME             34 ****               0 ****  **** 
