@<TRIPOS>MOLECULE
default_name
   39    38     5     0     1 
SMALL
USER_CHARGES
@<TRIPOS>ATOM
  1 H1     25.600000   27.793000   21.304000 H     1 ACE     0.1123 ****
  2 CH3    26.552000   28.309000   21.417000 C     1 ACE    -0.3662 ****
  3 H2     26.558000   29.207000   20.801000 H     1 ACE     0.1123 ****
  4 H3     27.365000   27.649000   21.120000 H     1 ACE     0.1123 ****
  5 C      26.728000   28.698000   22.867000 C     1 ACE     0.5972 ****
  6 O      25.866000   28.419000   23.689000 O     1 ACE    -0.5679 ****
  7 N      27.849000   29.341000   23.180000 N     2 GLY    -0.4157 ****
  8 H      28.524000   29.539000   22.455000 H     2 GLY     0.2719 ****
  9 CA     28.182000   29.798000   24.530000 C     2 GLY    -0.0252 ****
 10 HA2    27.429000   30.514000   24.861000 H     2 GLY     0.0698 ****
 11 HA3    28.171000   28.947000   25.212000 H     2 GLY     0.0698 ****
 12 C      29.557000   30.467000   24.598000 C     2 GLY     0.5973 ****
 13 O      30.280000   30.500000   23.604000 O     2 GLY    -0.5679 ****
 14 N      29.942000   30.915000   25.800000 N     3 ALA    -0.4157 ****
 15 H      29.309000   30.723000   26.559000 H     3 ALA     0.2719 ****
 16 CA     30.959000   31.945000   26.077000 C     3 ALA     0.0337 ****
 17 HA     30.587000   32.576000   26.885000 H     3 ALA     0.0823 ****
 18 CB     32.195000   31.192000   26.605000 C     3 ALA    -0.1825 ****
 19 HB1    32.643000   30.604000   25.802000 H     3 ALA     0.0603 ****
 20 HB2    32.930000   31.894000   27.001000 H     3 ALA     0.0603 ****
 21 HB3    31.903000   30.520000   27.413000 H     3 ALA     0.0603 ****
 22 C      31.287000   32.903000   24.894000 C     3 ALA     0.5973 ****
 23 O      30.386000   33.303000   24.160000 O     3 ALA    -0.5679 ****
 24 N      32.526000   33.407000   24.819000 N     4 ALA    -0.4157 ****
 25 H      33.199000   33.063000   25.483000 H     4 ALA     0.2719 ****
 26 CA     32.994000   34.443000   23.889000 C     4 ALA     0.0337 ****
 27 HA     34.021000   34.668000   24.178000 H     4 ALA     0.0823 ****
 28 CB     33.081000   33.883000   22.459000 C     4 ALA    -0.1825 ****
 29 HB1    32.092000   33.598000   22.098000 H     4 ALA     0.0603 ****
 30 HB2    33.501000   34.638000   21.793000 H     4 ALA     0.0603 ****
 31 HB3    33.725000   33.003000   22.447000 H     4 ALA     0.0603 ****
 32 C      32.255000   35.794000   24.023000 C     4 ALA     0.5973 ****
 33 O      32.687000   36.634000   24.809000 O     4 ALA    -0.5679 ****
 34 N      31.173000   36.016000   23.267000 N     5 NME    -0.4157 ****
 35 H      30.845000   35.252000   22.694000 H     5 NME     0.2719 ****
 36 CH3    30.386000   37.247000   23.293000 C     5 NME    -0.1490 ****
 37 HH31   29.981000   37.401000   24.295000 H     5 NME     0.0976 ****
 38 HH32   31.022000   38.097000   23.038000 H     5 NME     0.0976 ****
 39 HH33   29.564000   37.182000   22.579000 H     5 NME     0.0976 ****
@<TRIPOS>BOND
    1     5     6 1
    2     5     7 1
    3     2     3 1
    4     2     4 1
    5     2     5 1
    6     1     2 1
    7    12    13 1
    8    12    14 1
    9     9    10 1
   10     9    11 1
   11     9    12 1
   12     7     8 1
   13     7     9 1
   14    22    23 1
   15    22    24 1
   16    18    19 1
   17    18    20 1
   18    18    21 1
   19    16    17 1
   20    16    18 1
   21    16    22 1
   22    14    15 1
   23    14    16 1
   24    32    33 1
   25    32    34 1
   26    28    29 1
   27    28    30 1
   28    28    31 1
   29    26    27 1
   30    26    28 1
   31    26    32 1
   32    24    25 1
   33    24    26 1
   34    36    37 1
   35    36    38 1
   36    36    39 1
   37    34    35 1
   38    34    36 1
@<TRIPOS>SUBSTRUCTURE
      1  ACE              1 ****               0 ****  **** 
      2  GLY              7 ****               0 ****  **** 
      3  ALA             14 ****               0 ****  **** 
      4  ALA             24 ****               0 ****  **** 
      5  NME             34 ****               0 ****  **** 
