@<TRIPOS>MOLECULE
default_name
   39    38     5     0     1 
SMALL
USER_CHARGES
@<TRIPOS>ATOM
  1 H1     25.925000   32.323000   22.938000 H     1 ACE     0.1123 ****
  2 CH3    26.611000   31.576000   22.541000 C     1 ACE    -0.3662 ****
  3 H2     27.499000   32.071000   22.151000 H     1 ACE     0.1123 ****
  4 H3     26.118000   31.010000   21.752000 H     1 ACE     0.1123 ****
  5 C      27.010000   30.642000   23.658000 C     1 ACE     0.5972 ****
  6 O      26.597000   30.825000   24.793000 O     1 ACE    -0.5679 ****
  7 N      27.838000   29.646000   23.341000 N     2 GLY    -0.4157 ****
  8 H      28.138000   29.569000   22.382000 H     2 GLY     0.2719 ****
  9 CA     28.344000   28.655000   24.306000 C     2 GLY    -0.0252 ****
 10 HA2    27.522000   28.337000   24.947000 H     2 GLY     0.0698 ****
 11 HA3    28.706000   27.783000   23.763000 H     2 GLY     0.0698 ****
 12 C      29.480000   29.143000   25.221000 C     2 GLY     0.5973 ****
 13 O      30.109000   28.316000   25.872000 O     2 GLY    -0.5679 ****
 14 N      29.745000   30.454000   25.243000 N     3 ALA    -0.4157 ****
 15 H      29.085000   31.045000   24.756000 H     3 ALA     0.2719 ****
 16 CA     30.851000   31.186000   25.876000 C     3 ALA     0.0337 ****
 17 HA     30.719000   31.211000   26.958000 H     3 ALA     0.0823 ****
 18 CB     32.197000   30.506000   25.525000 C     3 ALA    -0.1825 ****
 19 HB1    32.329000   30.467000   24.442000 H     3 ALA     0.0603 ****
 20 HB2    33.029000   31.047000   25.974000 H     3 ALA     0.0603 ****
 21 HB3    32.236000   29.494000   25.925000 H     3 ALA     0.0603 ****
 22 C      30.826000   32.634000   25.318000 C     3 ALA     0.5973 ****
 23 O      29.764000   33.127000   24.933000 O     3 ALA    -0.5679 ****
 24 N      31.971000   33.318000   25.221000 N     4 ALA    -0.4157 ****
 25 H      32.826000   32.859000   25.485000 H     4 ALA     0.2719 ****
 26 CA     32.073000   34.609000   24.541000 C     4 ALA     0.0337 ****
 27 HA     31.272000   35.254000   24.907000 H     4 ALA     0.0823 ****
 28 CB     33.415000   35.256000   24.905000 C     4 ALA    -0.1825 ****
 29 HB1    34.237000   34.634000   24.548000 H     4 ALA     0.0603 ****
 30 HB2    33.487000   36.239000   24.439000 H     4 ALA     0.0603 ****
 31 HB3    33.490000   35.371000   25.987000 H     4 ALA     0.0603 ****
 32 C      31.906000   34.461000   23.014000 C     4 ALA     0.5973 ****
 33 O      32.383000   33.492000   22.423000 O     4 ALA    -0.5679 ****
 34 N      31.262000   35.445000   22.374000 N     5 NME    -0.4157 ****
 35 H      30.885000   36.199000   22.926000 H     5 NME     0.2719 ****
 36 CH3    31.034000   35.468000   20.930000 C     5 NME    -0.1490 ****
 37 HH31   30.439000   34.601000   20.639000 H     5 NME     0.0976 ****
 38 HH32   30.507000   36.379000   20.644000 H     5 NME     0.0976 ****
 39 HH33   31.991000   35.425000   20.405000 H     5 NME     0.0976 ****
@<TRIPOS>BOND
    1     5     6 1
    2     5     7 1
    3     2     3 1
    4     2     4 1
    5     2     5 1
    6     1     2 1
    7    12    13 1
    8    12    14 1
    9     9    10 1
   10     9    11 1
   11     9    12 1
   12     7     8 1
   13     7     9 1
   14    22    23 1
   15    22    24 1
   16    18    19 1
   17    18    20 1
   18    18    21 1
   19    16    17 1
   20    16    18 1
   21    16    22 1
   22    14    15 1
   23    14    16 1
   24    32    33 1
   25    32    34 1
   26    28    29 1
   27    28    30 1
   28    28    31 1
   29    26    27 1
   30    26    28 1
   31    26    32 1
   32    24    25 1
   33    24    26 1
   34    36    37 1
   35    36    38 1
   36    36    39 1
   37    34    35 1
   38    34    36 1
@<TRIPOS>SUBSTRUCTURE
      1  ACE              1 ****               0 ****  **** 
      2  GLY              7 ****               0 ****  **** 
      3  ALA             14 ****               0 ****  **** 
      4  ALA             24 ****               0 ****  **** 
      5  NME             34 ****               0 ****  **** 
