@<TRIPOS>MOLECULE
default_name
   39    38     5     0     1 
SMALL
USER_CHARGES
@<TRIPOS>ATOM
  1 H1     26.762000   25.127000   23.261000 H     1 ACE     0.1123 ****
  2 CH3    26.631000   26.208000   23.218000 C     1 ACE    -0.3662 ****
  3 H2     25.740000   26.491000   23.774000 H     1 ACE     0.1123 ****
  4 H3     26.538000   26.524000   22.180000 H     1 ACE     0.1123 ****
  5 C      27.839000   26.872000   23.836000 C     1 ACE     0.5972 ****
  6 O      28.755000   26.194000   24.281000 O     1 ACE    -0.5679 ****
  7 N      27.842000   28.202000   23.863000 N     2 GLY    -0.4157 ****
  8 H      27.055000   28.703000   23.475000 H     2 GLY     0.2719 ****
  9 CA     28.926000   29.006000   24.428000 C     2 GLY    -0.0252 ****
 10 HA2    29.028000   28.777000   25.489000 H     2 GLY     0.0698 ****
 11 HA3    29.862000   28.748000   23.931000 H     2 GLY     0.0698 ****
 12 C      28.684000   30.509000   24.271000 C     2 GLY     0.5973 ****
 13 O      27.667000   30.925000   23.719000 O     2 GLY    -0.5679 ****
 14 N      29.631000   31.323000   24.744000 N     3 ALA    -0.4157 ****
 15 H      30.433000   30.913000   25.195000 H     3 ALA     0.2719 ****
 16 CA     29.526000   32.783000   24.775000 C     3 ALA     0.0337 ****
 17 HA     28.945000   33.124000   23.915000 H     3 ALA     0.0823 ****
 18 CB     28.770000   33.197000   26.047000 C     3 ALA    -0.1825 ****
 19 HB1    29.302000   32.847000   26.933000 H     3 ALA     0.0603 ****
 20 HB2    28.692000   34.285000   26.087000 H     3 ALA     0.0603 ****
 21 HB3    27.766000   32.773000   26.038000 H     3 ALA     0.0603 ****
 22 C      30.924000   33.424000   24.684000 C     3 ALA     0.5973 ****
 23 O      31.597000   33.633000   25.691000 O     3 ALA    -0.5679 ****
 24 N      31.396000   33.667000   23.459000 N     4 ALA    -0.4157 ****
 25 H      30.796000   33.495000   22.668000 H     4 ALA     0.2719 ****
 26 CA     32.648000   34.382000   23.217000 C     4 ALA     0.0337 ****
 27 HA     33.407000   33.993000   23.899000 H     4 ALA     0.0823 ****
 28 CB     33.109000   34.104000   21.781000 C     4 ALA    -0.1825 ****
 29 HB1    32.371000   34.486000   21.073000 H     4 ALA     0.0603 ****
 30 HB2    34.063000   34.600000   21.599000 H     4 ALA     0.0603 ****
 31 HB3    33.233000   33.031000   21.631000 H     4 ALA     0.0603 ****
 32 C      32.493000   35.893000   23.485000 C     4 ALA     0.5973 ****
 33 O      31.477000   36.486000   23.126000 O     4 ALA    -0.5679 ****
 34 N      33.518000   36.518000   24.077000 N     5 NME    -0.4157 ****
 35 H      34.311000   35.963000   24.359000 H     5 NME     0.2719 ****
 36 CH3    33.532000   37.946000   24.390000 C     5 NME    -0.1490 ****
 37 HH31   32.719000   38.177000   25.081000 H     5 NME     0.0976 ****
 38 HH32   34.483000   38.225000   24.845000 H     5 NME     0.0976 ****
 39 HH33   33.385000   38.525000   23.476000 H     5 NME     0.0976 ****
@<TRIPOS>BOND
    1     5     6 1
    2     5     7 1
    3     2     3 1
    4     2     4 1
    5     2     5 1
    6     1     2 1
    7    12    13 1
    8    12    14 1
    9     9    10 1
   10     9    11 1
   11     9    12 1
   12     7     8 1
   13     7     9 1
   14    22    23 1
   15    22    24 1
   16    18    19 1
   17    18    20 1
   18    18    21 1
   19    16    17 1
   20    16    18 1
   21    16    22 1
   22    14    15 1
   23    14    16 1
   24    32    33 1
   25    32    34 1
   26    28    29 1
   27    28    30 1
   28    28    31 1
   29    26    27 1
   30    26    28 1
   31    26    32 1
   32    24    25 1
   33    24    26 1
   34    36    37 1
   35    36    38 1
   36    36    39 1
   37    34    35 1
   38    34    36 1
@<TRIPOS>SUBSTRUCTURE
      1  ACE              1 ****               0 ****  **** 
      2  GLY              7 ****               0 ****  **** 
      3  ALA             14 ****               0 ****  **** 
      4  ALA             24 ****               0 ****  **** 
      5  NME             34 ****               0 ****  **** 
