@<TRIPOS>MOLECULE
default_name
   39    38     5     0     1 
SMALL
USER_CHARGES
@<TRIPOS>ATOM
  1 H1     26.883000   26.149000   21.760000 H     1 ACE     0.1123 ****
  2 CH3    26.779000   27.188000   22.068000 C     1 ACE    -0.3662 ****
  3 H2     25.846000   27.317000   22.613000 H     1 ACE     0.1123 ****
  4 H3     26.789000   27.832000   21.191000 H     1 ACE     0.1123 ****
  5 C      27.937000   27.550000   22.968000 C     1 ACE     0.5972 ****
  6 O      28.795000   26.719000   23.236000 O     1 ACE    -0.5679 ****
  7 N      27.966000   28.795000   23.435000 N     2 GLY    -0.4157 ****
  8 H      27.230000   29.436000   23.174000 H     2 GLY     0.2719 ****
  9 CA     29.011000   29.310000   24.321000 C     2 GLY    -0.0252 ****
 10 HA2    28.998000   28.750000   25.256000 H     2 GLY     0.0698 ****
 11 HA3    29.984000   29.165000   23.849000 H     2 GLY     0.0698 ****
 12 C      28.833000   30.797000   24.636000 C     2 GLY     0.5973 ****
 13 O      27.864000   31.415000   24.203000 O     2 GLY    -0.5679 ****
 14 N      29.784000   31.370000   25.378000 N     3 ALA    -0.4157 ****
 15 H      30.542000   30.791000   25.703000 H     3 ALA     0.2719 ****
 16 CA     29.752000   32.758000   25.860000 C     3 ALA     0.0337 ****
 17 HA     28.879000   33.258000   25.435000 H     3 ALA     0.0823 ****
 18 CB     29.564000   32.736000   27.384000 C     3 ALA    -0.1825 ****
 19 HB1    30.431000   32.278000   27.863000 H     3 ALA     0.0603 ****
 20 HB2    29.452000   33.756000   27.755000 H     3 ALA     0.0603 ****
 21 HB3    28.666000   32.172000   27.640000 H     3 ALA     0.0603 ****
 22 C      30.973000   33.586000   25.395000 C     3 ALA     0.5973 ****
 23 O      31.470000   34.448000   26.117000 O     3 ALA    -0.5679 ****
 24 N      31.499000   33.291000   24.203000 N     4 ALA    -0.4157 ****
 25 H      31.015000   32.628000   23.620000 H     4 ALA     0.2719 ****
 26 CA     32.593000   34.053000   23.601000 C     4 ALA     0.0337 ****
 27 HA     33.343000   34.249000   24.369000 H     4 ALA     0.0823 ****
 28 CB     33.245000   33.202000   22.505000 C     4 ALA    -0.1825 ****
 29 HB1    32.519000   32.989000   21.718000 H     4 ALA     0.0603 ****
 30 HB2    34.085000   33.744000   22.071000 H     4 ALA     0.0603 ****
 31 HB3    33.608000   32.264000   22.927000 H     4 ALA     0.0603 ****
 32 C      32.098000   35.408000   23.056000 C     4 ALA     0.5973 ****
 33 O      31.073000   35.467000   22.378000 O     4 ALA    -0.5679 ****
 34 N      32.850000   36.484000   23.317000 N     5 NME    -0.4157 ****
 35 H      33.662000   36.363000   23.901000 H     5 NME     0.2719 ****
 36 CH3    32.526000   37.835000   22.862000 C     5 NME    -0.1490 ****
 37 HH31   31.568000   38.144000   23.285000 H     5 NME     0.0976 ****
 38 HH32   33.300000   38.537000   23.175000 H     5 NME     0.0976 ****
 39 HH33   32.444000   37.848000   21.773000 H     5 NME     0.0976 ****
@<TRIPOS>BOND
    1     5     6 1
    2     5     7 1
    3     2     3 1
    4     2     4 1
    5     2     5 1
    6     1     2 1
    7    12    13 1
    8    12    14 1
    9     9    10 1
   10     9    11 1
   11     9    12 1
   12     7     8 1
   13     7     9 1
   14    22    23 1
   15    22    24 1
   16    18    19 1
   17    18    20 1
   18    18    21 1
   19    16    17 1
   20    16    18 1
   21    16    22 1
   22    14    15 1
   23    14    16 1
   24    32    33 1
   25    32    34 1
   26    28    29 1
   27    28    30 1
   28    28    31 1
   29    26    27 1
   30    26    28 1
   31    26    32 1
   32    24    25 1
   33    24    26 1
   34    36    37 1
   35    36    38 1
   36    36    39 1
   37    34    35 1
   38    34    36 1
@<TRIPOS>SUBSTRUCTURE
      1  ACE              1 ****               0 ****  **** 
      2  GLY              7 ****               0 ****  **** 
      3  ALA             14 ****               0 ****  **** 
      4  ALA             24 ****               0 ****  **** 
      5  NME             34 ****               0 ****  **** 
