@<TRIPOS>MOLECULE
default_name
   39    38     5     0     1 
SMALL
USER_CHARGES
@<TRIPOS>ATOM
  1 H1     25.268000   28.643000   24.221000 H     1 ACE     0.1123 ****
  2 CH3    25.758000   29.073000   23.348000 C     1 ACE    -0.3662 ****
  3 H2     25.328000   30.050000   23.134000 H     1 ACE     0.1123 ****
  4 H3     25.624000   28.412000   22.494000 H     1 ACE     0.1123 ****
  5 C      27.232000   29.226000   23.639000 C     1 ACE     0.5972 ****
  6 O      27.686000   28.887000   24.724000 O     1 ACE    -0.5679 ****
  7 N      27.986000   29.741000   22.669000 N     2 GLY    -0.4157 ****
  8 H      27.536000   30.017000   21.811000 H     2 GLY     0.2719 ****
  9 CA     29.422000   29.999000   22.809000 C     2 GLY    -0.0252 ****
 10 HA2    29.902000   29.149000   23.296000 H     2 GLY     0.0698 ****
 11 HA3    29.864000   30.119000   21.820000 H     2 GLY     0.0698 ****
 12 C      29.708000   31.267000   23.617000 C     2 GLY     0.5973 ****
 13 O      29.780000   32.346000   23.040000 O     2 GLY    -0.5679 ****
 14 N      29.861000   31.130000   24.939000 N     3 ALA    -0.4157 ****
 15 H      29.702000   30.206000   25.310000 H     3 ALA     0.2719 ****
 16 CA     30.177000   32.170000   25.933000 C     3 ALA     0.0337 ****
 17 HA     29.229000   32.606000   26.251000 H     3 ALA     0.0823 ****
 18 CB     30.791000   31.470000   27.152000 C     3 ALA    -0.1825 ****
 19 HB1    31.741000   31.008000   26.883000 H     3 ALA     0.0603 ****
 20 HB2    30.963000   32.202000   27.943000 H     3 ALA     0.0603 ****
 21 HB3    30.108000   30.706000   27.527000 H     3 ALA     0.0603 ****
 22 C      31.057000   33.364000   25.487000 C     3 ALA     0.5973 ****
 23 O      30.834000   34.482000   25.938000 O     3 ALA    -0.5679 ****
 24 N      32.063000   33.140000   24.635000 N     4 ALA    -0.4157 ****
 25 H      32.154000   32.214000   24.255000 H     4 ALA     0.2719 ****
 26 CA     33.048000   34.143000   24.209000 C     4 ALA     0.0337 ****
 27 HA     33.359000   34.700000   25.094000 H     4 ALA     0.0823 ****
 28 CB     34.274000   33.388000   23.675000 C     4 ALA    -0.1825 ****
 29 HB1    34.011000   32.845000   22.767000 H     4 ALA     0.0603 ****
 30 HB2    35.070000   34.098000   23.443000 H     4 ALA     0.0603 ****
 31 HB3    34.641000   32.689000   24.428000 H     4 ALA     0.0603 ****
 32 C      32.533000   35.203000   23.199000 C     4 ALA     0.5973 ****
 33 O      33.335000   35.950000   22.640000 O     4 ALA    -0.5679 ****
 34 N      31.221000   35.267000   22.938000 N     5 NME    -0.4157 ****
 35 H      30.616000   34.646000   23.453000 H     5 NME     0.2719 ****
 36 CH3    30.607000   36.202000   21.999000 C     5 NME    -0.1490 ****
 37 HH31   31.089000   36.115000   21.024000 H     5 NME     0.0976 ****
 38 HH32   29.543000   35.982000   21.896000 H     5 NME     0.0976 ****
 39 HH33   30.733000   37.223000   22.363000 H     5 NME     0.0976 ****
@<TRIPOS>BOND
    1     5     6 1
    2     5     7 1
    3     2     3 1
    4     2     4 1
    5     2     5 1
    6     1     2 1
    7    12    13 1
    8    12    14 1
    9     9    10 1
   10     9    11 1
   11     9    12 1
   12     7     8 1
   13     7     9 1
   14    22    23 1
   15    22    24 1
   16    18    19 1
   17    18    20 1
   18    18    21 1
   19    16    17 1
   20    16    18 1
   21    16    22 1
   22    14    15 1
   23    14    16 1
   24    32    33 1
   25    32    34 1
   26    28    29 1
   27    28    30 1
   28    28    31 1
   29    26    27 1
   30    26    28 1
   31    26    32 1
   32    24    25 1
   33    24    26 1
   34    36    37 1
   35    36    38 1
   36    36    39 1
   37    34    35 1
   38    34    36 1
@<TRIPOS>SUBSTRUCTURE
      1  ACE              1 ****               0 ****  **** 
      2  GLY              7 ****               0 ****  **** 
      3  ALA             14 ****               0 ****  **** 
      4  ALA             24 ****               0 ****  **** 
      5  NME             34 ****               0 ****  **** 
