@<TRIPOS>MOLECULE
default_name
   39    38     5     0     1 
SMALL
USER_CHARGES
@<TRIPOS>ATOM
  1 H1     25.864000   27.051000   21.534000 H     1 ACE     0.1123 ****
  2 CH3    25.913000   27.836000   22.288000 C     1 ACE    -0.3662 ****
  3 H2     25.591000   27.440000   23.249000 H     1 ACE     0.1123 ****
  4 H3     25.272000   28.665000   21.994000 H     1 ACE     0.1123 ****
  5 C      27.339000   28.321000   22.398000 C     1 ACE     0.5972 ****
  6 O      28.214000   27.830000   21.697000 O     1 ACE    -0.5679 ****
  7 N      27.576000   29.285000   23.283000 N     2 GLY    -0.4157 ****
  8 H      26.812000   29.643000   23.837000 H     2 GLY     0.2719 ****
  9 CA     28.896000   29.874000   23.516000 C     2 GLY    -0.0252 ****
 10 HA2    29.603000   29.082000   23.764000 H     2 GLY     0.0698 ****
 11 HA3    29.236000   30.364000   22.604000 H     2 GLY     0.0698 ****
 12 C      28.887000   30.899000   24.653000 C     2 GLY     0.5973 ****
 13 O      27.844000   31.166000   25.244000 O     2 GLY    -0.5679 ****
 14 N      30.059000   31.465000   24.957000 N     3 ALA    -0.4157 ****
 15 H      30.861000   31.192000   24.415000 H     3 ALA     0.2719 ****
 16 CA     30.236000   32.487000   25.999000 C     3 ALA     0.0337 ****
 17 HA     29.259000   32.895000   26.270000 H     3 ALA     0.0823 ****
 18 CB     30.823000   31.817000   27.248000 C     3 ALA    -0.1825 ****
 19 HB1    31.800000   31.387000   27.028000 H     3 ALA     0.0603 ****
 20 HB2    30.928000   32.558000   28.042000 H     3 ALA     0.0603 ****
 21 HB3    30.150000   31.030000   27.593000 H     3 ALA     0.0603 ****
 22 C      31.084000   33.683000   25.528000 C     3 ALA     0.5973 ****
 23 O      30.700000   34.833000   25.721000 O     3 ALA    -0.5679 ****
 24 N      32.229000   33.424000   24.885000 N     4 ALA    -0.4157 ****
 25 H      32.518000   32.469000   24.768000 H     4 ALA     0.2719 ****
 26 CA     33.046000   34.457000   24.252000 C     4 ALA     0.0337 ****
 27 HA     33.117000   35.316000   24.921000 H     4 ALA     0.0823 ****
 28 CB     34.462000   33.898000   24.053000 C     4 ALA    -0.1825 ****
 29 HB1    34.435000   33.022000   23.403000 H     4 ALA     0.0603 ****
 30 HB2    35.092000   34.659000   23.590000 H     4 ALA     0.0603 ****
 31 HB3    34.893000   33.622000   25.016000 H     4 ALA     0.0603 ****
 32 C      32.398000   34.931000   22.933000 C     4 ALA     0.5973 ****
 33 O      32.596000   34.319000   21.885000 O     4 ALA    -0.5679 ****
 34 N      31.603000   36.006000   22.998000 N     5 NME    -0.4157 ****
 35 H      31.418000   36.394000   23.913000 H     5 NME     0.2719 ****
 36 CH3    30.907000   36.583000   21.851000 C     5 NME    -0.1490 ****
 37 HH31   30.232000   35.842000   21.419000 H     5 NME     0.0976 ****
 38 HH32   30.330000   37.456000   22.160000 H     5 NME     0.0976 ****
 39 HH33   31.631000   36.880000   21.090000 H     5 NME     0.0976 ****
@<TRIPOS>BOND
    1     5     6 1
    2     5     7 1
    3     2     3 1
    4     2     4 1
    5     2     5 1
    6     1     2 1
    7    12    13 1
    8    12    14 1
    9     9    10 1
   10     9    11 1
   11     9    12 1
   12     7     8 1
   13     7     9 1
   14    22    23 1
   15    22    24 1
   16    18    19 1
   17    18    20 1
   18    18    21 1
   19    16    17 1
   20    16    18 1
   21    16    22 1
   22    14    15 1
   23    14    16 1
   24    32    33 1
   25    32    34 1
   26    28    29 1
   27    28    30 1
   28    28    31 1
   29    26    27 1
   30    26    28 1
   31    26    32 1
   32    24    25 1
   33    24    26 1
   34    36    37 1
   35    36    38 1
   36    36    39 1
   37    34    35 1
   38    34    36 1
@<TRIPOS>SUBSTRUCTURE
      1  ACE              1 ****               0 ****  **** 
      2  GLY              7 ****               0 ****  **** 
      3  ALA             14 ****               0 ****  **** 
      4  ALA             24 ****               0 ****  **** 
      5  NME             34 ****               0 ****  **** 
