@<TRIPOS>MOLECULE
default_name
   39    38     5     0     1 
SMALL
USER_CHARGES
@<TRIPOS>ATOM
  1 H1     29.069000   29.959000   20.575000 H     1 ACE     0.1123 ****
  2 CH3    29.320000   29.128000   21.233000 C     1 ACE    -0.3662 ****
  3 H2     30.395000   28.957000   21.208000 H     1 ACE     0.1123 ****
  4 H3     28.794000   28.233000   20.906000 H     1 ACE     0.1123 ****
  5 C      28.901000   29.471000   22.642000 C     1 ACE     0.5972 ****
  6 O      28.378000   30.554000   22.880000 O     1 ACE    -0.5679 ****
  7 N      29.134000   28.549000   23.577000 N     2 GLY    -0.4157 ****
  8 H      29.595000   27.698000   23.295000 H     2 GLY     0.2719 ****
  9 CA     28.864000   28.736000   25.007000 C     2 GLY    -0.0252 ****
 10 HA2    27.862000   29.143000   25.143000 H     2 GLY     0.0698 ****
 11 HA3    28.914000   27.772000   25.513000 H     2 GLY     0.0698 ****
 12 C      29.885000   29.670000   25.661000 C     2 GLY     0.5973 ****
 13 O      30.925000   29.202000   26.107000 O     2 GLY    -0.5679 ****
 14 N      29.571000   30.971000   25.654000 N     3 ALA    -0.4157 ****
 15 H      28.676000   31.187000   25.246000 H     3 ALA     0.2719 ****
 16 CA     30.349000   32.134000   26.109000 C     3 ALA     0.0337 ****
 17 HA     29.608000   32.839000   26.487000 H     3 ALA     0.0823 ****
 18 CB     31.256000   31.848000   27.319000 C     3 ALA    -0.1825 ****
 19 HB1    32.113000   31.248000   27.013000 H     3 ALA     0.0603 ****
 20 HB2    31.626000   32.790000   27.725000 H     3 ALA     0.0603 ****
 21 HB3    30.697000   31.320000   28.092000 H     3 ALA     0.0603 ****
 22 C      31.007000   32.875000   24.925000 C     3 ALA     0.5973 ****
 23 O      32.225000   33.032000   24.863000 O     3 ALA    -0.5679 ****
 24 N      30.190000   33.352000   23.980000 N     4 ALA    -0.4157 ****
 25 H      29.203000   33.166000   24.049000 H     4 ALA     0.2719 ****
 26 CA     30.646000   34.112000   22.817000 C     4 ALA     0.0337 ****
 27 HA     31.553000   33.647000   22.427000 H     4 ALA     0.0823 ****
 28 CB     29.566000   34.011000   21.730000 C     4 ALA    -0.1825 ****
 29 HB1    28.632000   34.449000   22.085000 H     4 ALA     0.0603 ****
 30 HB2    29.892000   34.550000   20.840000 H     4 ALA     0.0603 ****
 31 HB3    29.396000   32.965000   21.471000 H     4 ALA     0.0603 ****
 32 C      30.985000   35.570000   23.195000 C     4 ALA     0.5973 ****
 33 O      30.115000   36.439000   23.196000 O     4 ALA    -0.5679 ****
 34 N      32.256000   35.832000   23.526000 N     5 NME    -0.4157 ****
 35 H      32.895000   35.051000   23.575000 H     5 NME     0.2719 ****
 36 CH3    32.750000   37.152000   23.909000 C     5 NME    -0.1490 ****
 37 HH31   32.207000   37.506000   24.788000 H     5 NME     0.0976 ****
 38 HH32   33.815000   37.103000   24.141000 H     5 NME     0.0976 ****
 39 HH33   32.589000   37.858000   23.092000 H     5 NME     0.0976 ****
@<TRIPOS>BOND
    1     5     6 1
    2     5     7 1
    3     2     3 1
    4     2     4 1
    5     2     5 1
    6     1     2 1
    7    12    13 1
    8    12    14 1
    9     9    10 1
   10     9    11 1
   11     9    12 1
   12     7     8 1
   13     7     9 1
   14    22    23 1
   15    22    24 1
   16    18    19 1
   17    18    20 1
   18    18    21 1
   19    16    17 1
   20    16    18 1
   21    16    22 1
   22    14    15 1
   23    14    16 1
   24    32    33 1
   25    32    34 1
   26    28    29 1
   27    28    30 1
   28    28    31 1
   29    26    27 1
   30    26    28 1
   31    26    32 1
   32    24    25 1
   33    24    26 1
   34    36    37 1
   35    36    38 1
   36    36    39 1
   37    34    35 1
   38    34    36 1
@<TRIPOS>SUBSTRUCTURE
      1  ACE              1 ****               0 ****  **** 
      2  GLY              7 ****               0 ****  **** 
      3  ALA             14 ****               0 ****  **** 
      4  ALA             24 ****               0 ****  **** 
      5  NME             34 ****               0 ****  **** 
