@<TRIPOS>MOLECULE
default_name
   39    38     5     0     1 
SMALL
USER_CHARGES
@<TRIPOS>ATOM
  1 H1     28.575000   29.954000   20.699000 H     1 ACE     0.1123 ****
  2 CH3    29.042000   29.241000   21.378000 C     1 ACE    -0.3662 ****
  3 H2     30.107000   29.455000   21.454000 H     1 ACE     0.1123 ****
  4 H3     28.890000   28.230000   21.004000 H     1 ACE     0.1123 ****
  5 C      28.405000   29.373000   22.741000 C     1 ACE     0.5972 ****
  6 O      27.531000   30.206000   22.932000 O     1 ACE    -0.5679 ****
  7 N      28.866000   28.565000   23.695000 N     2 GLY    -0.4157 ****
  8 H      29.599000   27.920000   23.446000 H     2 GLY     0.2719 ****
  9 CA     28.385000   28.541000   25.087000 C     2 GLY    -0.0252 ****
 10 HA2    27.309000   28.719000   25.092000 H     2 GLY     0.0698 ****
 11 HA3    28.564000   27.552000   25.509000 H     2 GLY     0.0698 ****
 12 C      29.029000   29.576000   26.023000 C     2 GLY     0.5973 ****
 13 O      29.083000   29.335000   27.223000 O     2 GLY    -0.5679 ****
 14 N      29.531000   30.687000   25.470000 N     3 ALA    -0.4157 ****
 15 H      29.369000   30.779000   24.481000 H     3 ALA     0.2719 ****
 16 CA     30.469000   31.670000   26.030000 C     3 ALA     0.0337 ****
 17 HA     29.924000   32.424000   26.599000 H     3 ALA     0.0823 ****
 18 CB     31.528000   31.010000   26.936000 C     3 ALA    -0.1825 ****
 19 HB1    31.982000   30.156000   26.431000 H     3 ALA     0.0603 ****
 20 HB2    32.307000   31.734000   27.177000 H     3 ALA     0.0603 ****
 21 HB3    31.076000   30.680000   27.871000 H     3 ALA     0.0603 ****
 22 C      31.199000   32.333000   24.845000 C     3 ALA     0.5973 ****
 23 O      32.033000   31.716000   24.183000 O     3 ALA    -0.5679 ****
 24 N      30.817000   33.571000   24.523000 N     4 ALA    -0.4157 ****
 25 H      30.135000   34.039000   25.102000 H     4 ALA     0.2719 ****
 26 CA     31.345000   34.343000   23.398000 C     4 ALA     0.0337 ****
 27 HA     32.395000   34.086000   23.251000 H     4 ALA     0.0823 ****
 28 CB     30.565000   33.963000   22.130000 C     4 ALA    -0.1825 ****
 29 HB1    29.509000   34.207000   22.255000 H     4 ALA     0.0603 ****
 30 HB2    30.959000   34.508000   21.272000 H     4 ALA     0.0603 ****
 31 HB3    30.665000   32.893000   21.940000 H     4 ALA     0.0603 ****
 32 C      31.261000   35.855000   23.682000 C     4 ALA     0.5973 ****
 33 O      30.509000   36.283000   24.557000 O     4 ALA    -0.5679 ****
 34 N      32.027000   36.661000   22.935000 N     5 NME    -0.4157 ****
 35 H      32.614000   36.238000   22.233000 H     5 NME     0.2719 ****
 36 CH3    32.059000   38.116000   23.074000 C     5 NME    -0.1490 ****
 37 HH31   32.372000   38.383000   24.086000 H     5 NME     0.0976 ****
 38 HH32   32.756000   38.551000   22.356000 H     5 NME     0.0976 ****
 39 HH33   31.062000   38.525000   22.901000 H     5 NME     0.0976 ****
@<TRIPOS>BOND
    1     5     6 1
    2     5     7 1
    3     2     3 1
    4     2     4 1
    5     2     5 1
    6     1     2 1
    7    12    13 1
    8    12    14 1
    9     9    10 1
   10     9    11 1
   11     9    12 1
   12     7     8 1
   13     7     9 1
   14    22    23 1
   15    22    24 1
   16    18    19 1
   17    18    20 1
   18    18    21 1
   19    16    17 1
   20    16    18 1
   21    16    22 1
   22    14    15 1
   23    14    16 1
   24    32    33 1
   25    32    34 1
   26    28    29 1
   27    28    30 1
   28    28    31 1
   29    26    27 1
   30    26    28 1
   31    26    32 1
   32    24    25 1
   33    24    26 1
   34    36    37 1
   35    36    38 1
   36    36    39 1
   37    34    35 1
   38    34    36 1
@<TRIPOS>SUBSTRUCTURE
      1  ACE              1 ****               0 ****  **** 
      2  GLY              7 ****               0 ****  **** 
      3  ALA             14 ****               0 ****  **** 
      4  ALA             24 ****               0 ****  **** 
      5  NME             34 ****               0 ****  **** 
