@<TRIPOS>MOLECULE
default_name
   39    38     5     0     1 
SMALL
USER_CHARGES
@<TRIPOS>ATOM
  1 H1     26.199000   26.850000   22.863000 H     1 ACE     0.1123 ****
  2 CH3    26.232000   27.263000   23.871000 C     1 ACE    -0.3662 ****
  3 H2     26.026000   26.476000   24.594000 H     1 ACE     0.1123 ****
  4 H3     25.494000   28.058000   23.963000 H     1 ACE     0.1123 ****
  5 C      27.610000   27.828000   24.122000 C     1 ACE     0.5972 ****
  6 O      28.468000   27.772000   23.251000 O     1 ACE    -0.5679 ****
  7 N      27.823000   28.376000   25.318000 N     2 GLY    -0.4157 ****
  8 H      27.059000   28.407000   25.973000 H     2 GLY     0.2719 ****
  9 CA     29.084000   29.017000   25.702000 C     2 GLY    -0.0252 ****
 10 HA2    29.112000   29.141000   26.784000 H     2 GLY     0.0698 ****
 11 HA3    29.923000   28.383000   25.410000 H     2 GLY     0.0698 ****
 12 C      29.251000   30.396000   25.060000 C     2 GLY     0.5973 ****
 13 O      28.822000   31.387000   25.643000 O     2 GLY    -0.5679 ****
 14 N      29.890000   30.439000   23.886000 N     3 ALA    -0.4157 ****
 15 H      30.188000   29.553000   23.507000 H     3 ALA     0.2719 ****
 16 CA     30.150000   31.624000   23.059000 C     3 ALA     0.0337 ****
 17 HA     30.375000   31.231000   22.067000 H     3 ALA     0.0823 ****
 18 CB     28.887000   32.485000   22.853000 C     3 ALA    -0.1825 ****
 19 HB1    28.662000   33.058000   23.753000 H     3 ALA     0.0603 ****
 20 HB2    29.042000   33.178000   22.026000 H     3 ALA     0.0603 ****
 21 HB3    28.038000   31.844000   22.614000 H     3 ALA     0.0603 ****
 22 C      31.450000   32.353000   23.465000 C     3 ALA     0.5973 ****
 23 O      32.412000   31.716000   23.893000 O     3 ALA    -0.5679 ****
 24 N      31.495000   33.679000   23.313000 N     4 ALA    -0.4157 ****
 25 H      30.662000   34.157000   23.000000 H     4 ALA     0.2719 ****
 26 CA     32.629000   34.528000   23.678000 C     4 ALA     0.0337 ****
 27 HA     33.107000   34.114000   24.568000 H     4 ALA     0.0823 ****
 28 CB     33.647000   34.527000   22.528000 C     4 ALA    -0.1825 ****
 29 HB1    33.188000   34.931000   21.625000 H     4 ALA     0.0603 ****
 30 HB2    34.510000   35.137000   22.794000 H     4 ALA     0.0603 ****
 31 HB3    33.985000   33.508000   22.334000 H     4 ALA     0.0603 ****
 32 C      32.157000   35.956000   24.010000 C     4 ALA     0.5973 ****
 33 O      31.093000   36.380000   23.560000 O     4 ALA    -0.5679 ****
 34 N      32.961000   36.700000   24.781000 N     5 NME    -0.4157 ****
 35 H      33.819000   36.284000   25.107000 H     5 NME     0.2719 ****
 36 CH3    32.664000   38.074000   25.182000 C     5 NME    -0.1490 ****
 37 HH31   31.727000   38.099000   25.743000 H     5 NME     0.0976 ****
 38 HH32   33.467000   38.469000   25.806000 H     5 NME     0.0976 ****
 39 HH33   32.553000   38.701000   24.296000 H     5 NME     0.0976 ****
@<TRIPOS>BOND
    1     5     6 1
    2     5     7 1
    3     2     3 1
    4     2     4 1
    5     2     5 1
    6     1     2 1
    7    12    13 1
    8    12    14 1
    9     9    10 1
   10     9    11 1
   11     9    12 1
   12     7     8 1
   13     7     9 1
   14    22    23 1
   15    22    24 1
   16    18    19 1
   17    18    20 1
   18    18    21 1
   19    16    17 1
   20    16    18 1
   21    16    22 1
   22    14    15 1
   23    14    16 1
   24    32    33 1
   25    32    34 1
   26    28    29 1
   27    28    30 1
   28    28    31 1
   29    26    27 1
   30    26    28 1
   31    26    32 1
   32    24    25 1
   33    24    26 1
   34    36    37 1
   35    36    38 1
   36    36    39 1
   37    34    35 1
   38    34    36 1
@<TRIPOS>SUBSTRUCTURE
      1  ACE              1 ****               0 ****  **** 
      2  GLY              7 ****               0 ****  **** 
      3  ALA             14 ****               0 ****  **** 
      4  ALA             24 ****               0 ****  **** 
      5  NME             34 ****               0 ****  **** 
