@<TRIPOS>MOLECULE
default_name
   39    38     5     0     1 
SMALL
USER_CHARGES
@<TRIPOS>ATOM
  1 H1     28.534000   28.419000   21.169000 H     1 ACE     0.1123 ****
  2 CH3    28.990000   29.371000   21.435000 C     1 ACE    -0.3662 ****
  3 H2     28.548000   30.166000   20.836000 H     1 ACE     0.1123 ****
  4 H3     30.063000   29.331000   21.255000 H     1 ACE     0.1123 ****
  5 C      28.739000   29.657000   22.897000 C     1 ACE     0.5972 ****
  6 O      28.148000   30.679000   23.230000 O     1 ACE    -0.5679 ****
  7 N      29.195000   28.755000   23.768000 N     2 GLY    -0.4157 ****
  8 H      29.702000   27.963000   23.408000 H     2 GLY     0.2719 ****
  9 CA     29.077000   28.889000   25.225000 C     2 GLY    -0.0252 ****
 10 HA2    28.026000   28.985000   25.499000 H     2 GLY     0.0698 ****
 11 HA3    29.479000   27.997000   25.705000 H     2 GLY     0.0698 ****
 12 C      29.852000   30.100000   25.746000 C     2 GLY     0.5973 ****
 13 O      31.059000   30.014000   25.936000 O     2 GLY    -0.5679 ****
 14 N      29.141000   31.216000   25.928000 N     3 ALA    -0.4157 ****
 15 H      28.165000   31.157000   25.683000 H     3 ALA     0.2719 ****
 16 CA     29.677000   32.570000   26.102000 C     3 ALA     0.0337 ****
 17 HA     28.857000   33.271000   25.945000 H     3 ALA     0.0823 ****
 18 CB     30.146000   32.744000   27.556000 C     3 ALA    -0.1825 ****
 19 HB1    30.976000   32.066000   27.764000 H     3 ALA     0.0603 ****
 20 HB2    30.485000   33.769000   27.710000 H     3 ALA     0.0603 ****
 21 HB3    29.326000   32.532000   28.242000 H     3 ALA     0.0603 ****
 22 C      30.755000   32.912000   25.049000 C     3 ALA     0.5973 ****
 23 O      31.940000   33.059000   25.347000 O     3 ALA    -0.5679 ****
 24 N      30.313000   33.135000   23.808000 N     4 ALA    -0.4157 ****
 25 H      29.339000   32.965000   23.606000 H     4 ALA     0.2719 ****
 26 CA     31.166000   33.569000   22.703000 C     4 ALA     0.0337 ****
 27 HA     32.107000   33.017000   22.750000 H     4 ALA     0.0823 ****
 28 CB     30.470000   33.195000   21.387000 C     4 ALA    -0.1825 ****
 29 HB1    29.506000   33.703000   21.314000 H     4 ALA     0.0603 ****
 30 HB2    31.093000   33.499000   20.545000 H     4 ALA     0.0603 ****
 31 HB3    30.314000   32.117000   21.343000 H     4 ALA     0.0603 ****
 32 C      31.496000   35.074000   22.801000 C     4 ALA     0.5973 ****
 33 O      30.747000   35.916000   22.306000 O     4 ALA    -0.5679 ****
 34 N      32.619000   35.411000   23.447000 N     5 NME    -0.4157 ****
 35 H      33.144000   34.668000   23.888000 H     5 NME     0.2719 ****
 36 CH3    33.081000   36.785000   23.633000 C     5 NME    -0.1490 ****
 37 HH31   32.324000   37.356000   24.174000 H     5 NME     0.0976 ****
 38 HH32   34.012000   36.795000   24.200000 H     5 NME     0.0976 ****
 39 HH33   33.243000   37.254000   22.660000 H     5 NME     0.0976 ****
@<TRIPOS>BOND
    1     5     6 1
    2     5     7 1
    3     2     3 1
    4     2     4 1
    5     2     5 1
    6     1     2 1
    7    12    13 1
    8    12    14 1
    9     9    10 1
   10     9    11 1
   11     9    12 1
   12     7     8 1
   13     7     9 1
   14    22    23 1
   15    22    24 1
   16    18    19 1
   17    18    20 1
   18    18    21 1
   19    16    17 1
   20    16    18 1
   21    16    22 1
   22    14    15 1
   23    14    16 1
   24    32    33 1
   25    32    34 1
   26    28    29 1
   27    28    30 1
   28    28    31 1
   29    26    27 1
   30    26    28 1
   31    26    32 1
   32    24    25 1
   33    24    26 1
   34    36    37 1
   35    36    38 1
   36    36    39 1
   37    34    35 1
   38    34    36 1
@<TRIPOS>SUBSTRUCTURE
      1  ACE              1 ****               0 ****  **** 
      2  GLY              7 ****               0 ****  **** 
      3  ALA             14 ****               0 ****  **** 
      4  ALA             24 ****               0 ****  **** 
      5  NME             34 ****               0 ****  **** 
