@<TRIPOS>MOLECULE
default_name
   39    38     5     0     1 
SMALL
USER_CHARGES
@<TRIPOS>ATOM
  1 H1     25.734000   27.878000   25.047000 H     1 ACE     0.1123 ****
  2 CH3    26.203000   28.082000   24.085000 C     1 ACE    -0.3662 ****
  3 H2     25.730000   28.948000   23.626000 H     1 ACE     0.1123 ****
  4 H3     26.093000   27.212000   23.439000 H     1 ACE     0.1123 ****
  5 C      27.670000   28.360000   24.305000 C     1 ACE     0.5972 ****
  6 O      28.140000   28.335000   25.433000 O     1 ACE    -0.5679 ****
  7 N      28.392000   28.653000   23.223000 N     2 GLY    -0.4157 ****
  8 H      27.921000   28.657000   22.333000 H     2 GLY     0.2719 ****
  9 CA     29.849000   28.870000   23.224000 C     2 GLY    -0.0252 ****
 10 HA2    30.311000   28.119000   23.867000 H     2 GLY     0.0698 ****
 11 HA3    30.228000   28.721000   22.213000 H     2 GLY     0.0698 ****
 12 C      30.339000   30.246000   23.706000 C     2 GLY     0.5973 ****
 13 O      31.491000   30.568000   23.451000 O     2 GLY    -0.5679 ****
 14 N      29.479000   31.033000   24.366000 N     3 ALA    -0.4157 ****
 15 H      28.588000   30.608000   24.557000 H     3 ALA     0.2719 ****
 16 CA     29.597000   32.431000   24.817000 C     3 ALA     0.0337 ****
 17 HA     28.593000   32.856000   24.772000 H     3 ALA     0.0823 ****
 18 CB     29.999000   32.417000   26.300000 C     3 ALA    -0.1825 ****
 19 HB1    30.981000   31.957000   26.422000 H     3 ALA     0.0603 ****
 20 HB2    30.027000   33.437000   26.686000 H     3 ALA     0.0603 ****
 21 HB3    29.269000   31.845000   26.875000 H     3 ALA     0.0603 ****
 22 C      30.481000   33.401000   23.993000 C     3 ALA     0.5973 ****
 23 O      29.924000   34.243000   23.295000 O     3 ALA    -0.5679 ****
 24 N      31.816000   33.314000   24.074000 N     4 ALA    -0.4157 ****
 25 H      32.187000   32.590000   24.669000 H     4 ALA     0.2719 ****
 26 CA     32.804000   34.080000   23.294000 C     4 ALA     0.0337 ****
 27 HA     33.780000   33.771000   23.667000 H     4 ALA     0.0823 ****
 28 CB     32.751000   33.622000   21.827000 C     4 ALA    -0.1825 ****
 29 HB1    31.816000   33.945000   21.368000 H     4 ALA     0.0603 ****
 30 HB2    33.584000   34.060000   21.275000 H     4 ALA     0.0603 ****
 31 HB3    32.824000   32.535000   21.772000 H     4 ALA     0.0603 ****
 32 C      32.803000   35.622000   23.456000 C     4 ALA     0.5973 ****
 33 O      33.590000   36.300000   22.798000 O     4 ALA    -0.5679 ****
 34 N      31.982000   36.186000   24.353000 N     5 NME    -0.4157 ****
 35 H      31.337000   35.583000   24.835000 H     5 NME     0.2719 ****
 36 CH3    31.899000   37.624000   24.602000 C     5 NME    -0.1490 ****
 37 HH31   31.171000   37.830000   25.388000 H     5 NME     0.0976 ****
 38 HH32   32.877000   38.003000   24.903000 H     5 NME     0.0976 ****
 39 HH33   31.594000   38.135000   23.687000 H     5 NME     0.0976 ****
@<TRIPOS>BOND
    1     5     6 1
    2     5     7 1
    3     2     3 1
    4     2     4 1
    5     2     5 1
    6     1     2 1
    7    12    13 1
    8    12    14 1
    9     9    10 1
   10     9    11 1
   11     9    12 1
   12     7     8 1
   13     7     9 1
   14    22    23 1
   15    22    24 1
   16    18    19 1
   17    18    20 1
   18    18    21 1
   19    16    17 1
   20    16    18 1
   21    16    22 1
   22    14    15 1
   23    14    16 1
   24    32    33 1
   25    32    34 1
   26    28    29 1
   27    28    30 1
   28    28    31 1
   29    26    27 1
   30    26    28 1
   31    26    32 1
   32    24    25 1
   33    24    26 1
   34    36    37 1
   35    36    38 1
   36    36    39 1
   37    34    35 1
   38    34    36 1
@<TRIPOS>SUBSTRUCTURE
      1  ACE              1 ****               0 ****  **** 
      2  GLY              7 ****               0 ****  **** 
      3  ALA             14 ****               0 ****  **** 
      4  ALA             24 ****               0 ****  **** 
      5  NME             34 ****               0 ****  **** 
