@<TRIPOS>MOLECULE
default_name
   39    38     5     0     1 
SMALL
USER_CHARGES
@<TRIPOS>ATOM
  1 H1     30.848000   28.418000   20.859000 H     1 ACE     0.1123 ****
  2 CH3    31.092000   28.207000   21.900000 C     1 ACE    -0.3662 ****
  3 H2     31.893000   28.869000   22.225000 H     1 ACE     0.1123 ****
  4 H3     31.402000   27.169000   21.997000 H     1 ACE     0.1123 ****
  5 C      29.866000   28.450000   22.747000 C     1 ACE     0.5972 ****
  6 O      28.835000   28.863000   22.236000 O     1 ACE    -0.5679 ****
  7 N      29.985000   28.218000   24.054000 N     2 GLY    -0.4157 ****
  8 H      30.875000   27.888000   24.393000 H     2 GLY     0.2719 ****
  9 CA     28.894000   28.379000   25.031000 C     2 GLY    -0.0252 ****
 10 HA2    27.987000   27.935000   24.618000 H     2 GLY     0.0698 ****
 11 HA3    29.149000   27.836000   25.941000 H     2 GLY     0.0698 ****
 12 C      28.556000   29.826000   25.427000 C     2 GLY     0.5973 ****
 13 O      27.841000   30.024000   26.403000 O     2 GLY    -0.5679 ****
 14 N      29.077000   30.818000   24.697000 N     3 ALA    -0.4157 ****
 15 H      29.623000   30.541000   23.895000 H     3 ALA     0.2719 ****
 16 CA     29.075000   32.257000   24.979000 C     3 ALA     0.0337 ****
 17 HA     28.068000   32.655000   24.855000 H     3 ALA     0.0823 ****
 18 CB     29.583000   32.544000   26.405000 C     3 ALA    -0.1825 ****
 19 HB1    30.551000   32.066000   26.562000 H     3 ALA     0.0603 ****
 20 HB2    29.688000   33.619000   26.553000 H     3 ALA     0.0603 ****
 21 HB3    28.875000   32.172000   27.146000 H     3 ALA     0.0603 ****
 22 C      30.041000   32.953000   24.001000 C     3 ALA     0.5973 ****
 23 O      31.047000   32.375000   23.593000 O     3 ALA    -0.5679 ****
 24 N      29.743000   34.203000   23.634000 N     4 ALA    -0.4157 ****
 25 H      28.903000   34.618000   24.004000 H     4 ALA     0.2719 ****
 26 CA     30.510000   34.999000   22.666000 C     4 ALA     0.0337 ****
 27 HA     30.804000   34.338000   21.849000 H     4 ALA     0.0823 ****
 28 CB     29.563000   36.060000   22.085000 C     4 ALA    -0.1825 ****
 29 HB1    29.272000   36.769000   22.861000 H     4 ALA     0.0603 ****
 30 HB2    30.067000   36.603000   21.284000 H     4 ALA     0.0603 ****
 31 HB3    28.673000   35.583000   21.672000 H     4 ALA     0.0603 ****
 32 C      31.825000   35.619000   23.209000 C     4 ALA     0.5973 ****
 33 O      32.375000   36.526000   22.590000 O     4 ALA    -0.5679 ****
 34 N      32.322000   35.169000   24.370000 N     5 NME    -0.4157 ****
 35 H      31.857000   34.389000   24.805000 H     5 NME     0.2719 ****
 36 CH3    33.539000   35.680000   24.998000 C     5 NME    -0.1490 ****
 37 HH31   33.730000   35.158000   25.936000 H     5 NME     0.0976 ****
 38 HH32   34.387000   35.534000   24.325000 H     5 NME     0.0976 ****
 39 HH33   33.432000   36.749000   25.193000 H     5 NME     0.0976 ****
@<TRIPOS>BOND
    1     5     6 1
    2     5     7 1
    3     2     3 1
    4     2     4 1
    5     2     5 1
    6     1     2 1
    7    12    13 1
    8    12    14 1
    9     9    10 1
   10     9    11 1
   11     9    12 1
   12     7     8 1
   13     7     9 1
   14    22    23 1
   15    22    24 1
   16    18    19 1
   17    18    20 1
   18    18    21 1
   19    16    17 1
   20    16    18 1
   21    16    22 1
   22    14    15 1
   23    14    16 1
   24    32    33 1
   25    32    34 1
   26    28    29 1
   27    28    30 1
   28    28    31 1
   29    26    27 1
   30    26    28 1
   31    26    32 1
   32    24    25 1
   33    24    26 1
   34    36    37 1
   35    36    38 1
   36    36    39 1
   37    34    35 1
   38    34    36 1
@<TRIPOS>SUBSTRUCTURE
      1  ACE              1 ****               0 ****  **** 
      2  GLY              7 ****               0 ****  **** 
      3  ALA             14 ****               0 ****  **** 
      4  ALA             24 ****               0 ****  **** 
      5  NME             34 ****               0 ****  **** 
