@<TRIPOS>MOLECULE
default_name
   39    38     5     0     1 
SMALL
USER_CHARGES
@<TRIPOS>ATOM
  1 H1     26.898000   25.043000   23.356000 H     1 ACE     0.1123 ****
  2 CH3    26.814000   26.115000   23.179000 C     1 ACE    -0.3662 ****
  3 H2     25.829000   26.460000   23.485000 H     1 ACE     0.1123 ****
  4 H3     26.971000   26.324000   22.123000 H     1 ACE     0.1123 ****
  5 C      27.869000   26.828000   23.992000 C     1 ACE     0.5972 ****
  6 O      28.638000   26.192000   24.700000 O     1 ACE    -0.5679 ****
  7 N      27.907000   28.154000   23.890000 N     2 GLY    -0.4157 ****
  8 H      27.245000   28.619000   23.285000 H     2 GLY     0.2719 ****
  9 CA     28.859000   29.004000   24.607000 C     2 GLY    -0.0252 ****
 10 HA2    28.717000   28.875000   25.680000 H     2 GLY     0.0698 ****
 11 HA3    29.875000   28.697000   24.357000 H     2 GLY     0.0698 ****
 12 C      28.694000   30.487000   24.265000 C     2 GLY     0.5973 ****
 13 O      27.841000   30.852000   23.458000 O     2 GLY    -0.5679 ****
 14 N      29.523000   31.339000   24.871000 N     3 ALA    -0.4157 ****
 15 H      30.204000   30.971000   25.518000 H     3 ALA     0.2719 ****
 16 CA     29.478000   32.794000   24.719000 C     3 ALA     0.0337 ****
 17 HA     28.922000   33.048000   23.815000 H     3 ALA     0.0823 ****
 18 CB     28.720000   33.393000   25.912000 C     3 ALA    -0.1825 ****
 19 HB1    29.232000   33.150000   26.844000 H     3 ALA     0.0603 ****
 20 HB2    28.674000   34.478000   25.806000 H     3 ALA     0.0603 ****
 21 HB3    27.705000   32.997000   25.943000 H     3 ALA     0.0603 ****
 22 C      30.899000   33.363000   24.572000 C     3 ALA     0.5973 ****
 23 O      31.660000   33.412000   25.537000 O     3 ALA    -0.5679 ****
 24 N      31.283000   33.736000   23.349000 N     4 ALA    -0.4157 ****
 25 H      30.614000   33.690000   22.597000 H     4 ALA     0.2719 ****
 26 CA     32.552000   34.414000   23.087000 C     4 ALA     0.0337 ****
 27 HA     33.340000   33.899000   23.640000 H     4 ALA     0.0823 ****
 28 CB     32.871000   34.309000   21.591000 C     4 ALA    -0.1825 ****
 29 HB1    32.101000   34.819000   21.010000 H     4 ALA     0.0603 ****
 30 HB2    33.835000   34.776000   21.387000 H     4 ALA     0.0603 ****
 31 HB3    32.915000   33.261000   21.292000 H     4 ALA     0.0603 ****
 32 C      32.514000   35.881000   23.562000 C     4 ALA     0.5973 ****
 33 O      31.506000   36.565000   23.390000 O     4 ALA    -0.5679 ****
 34 N      33.628000   36.371000   24.120000 N     5 NME    -0.4157 ****
 35 H      34.409000   35.747000   24.244000 H     5 NME     0.2719 ****
 36 CH3    33.759000   37.742000   24.611000 C     5 NME    -0.1490 ****
 37 HH31   33.032000   37.917000   25.407000 H     5 NME     0.0976 ****
 38 HH32   34.764000   37.913000   24.998000 H     5 NME     0.0976 ****
 39 HH33   33.560000   38.445000   23.800000 H     5 NME     0.0976 ****
@<TRIPOS>BOND
    1     5     6 1
    2     5     7 1
    3     2     3 1
    4     2     4 1
    5     2     5 1
    6     1     2 1
    7    12    13 1
    8    12    14 1
    9     9    10 1
   10     9    11 1
   11     9    12 1
   12     7     8 1
   13     7     9 1
   14    22    23 1
   15    22    24 1
   16    18    19 1
   17    18    20 1
   18    18    21 1
   19    16    17 1
   20    16    18 1
   21    16    22 1
   22    14    15 1
   23    14    16 1
   24    32    33 1
   25    32    34 1
   26    28    29 1
   27    28    30 1
   28    28    31 1
   29    26    27 1
   30    26    28 1
   31    26    32 1
   32    24    25 1
   33    24    26 1
   34    36    37 1
   35    36    38 1
   36    36    39 1
   37    34    35 1
   38    34    36 1
@<TRIPOS>SUBSTRUCTURE
      1  ACE              1 ****               0 ****  **** 
      2  GLY              7 ****               0 ****  **** 
      3  ALA             14 ****               0 ****  **** 
      4  ALA             24 ****               0 ****  **** 
      5  NME             34 ****               0 ****  **** 
