@<TRIPOS>MOLECULE
default_name
   39    38     5     0     1 
SMALL
USER_CHARGES
@<TRIPOS>ATOM
  1 H1     28.855000   26.567000   24.873000 H     1 ACE     0.1123 ****
  2 CH3    27.937000   27.011000   24.491000 C     1 ACE    -0.3662 ****
  3 H2     27.269000   27.236000   25.320000 H     1 ACE     0.1123 ****
  4 H3     27.457000   26.318000   23.803000 H     1 ACE     0.1123 ****
  5 C      28.277000   28.289000   23.762000 C     1 ACE     0.5972 ****
  6 O      29.441000   28.663000   23.684000 O     1 ACE    -0.5679 ****
  7 N      27.259000   28.962000   23.228000 N     2 GLY    -0.4157 ****
  8 H      26.327000   28.602000   23.357000 H     2 GLY     0.2719 ****
  9 CA     27.411000   30.241000   22.527000 C     2 GLY    -0.0252 ****
 10 HA2    28.213000   30.162000   21.791000 H     2 GLY     0.0698 ****
 11 HA3    26.487000   30.478000   22.000000 H     2 GLY     0.0698 ****
 12 C      27.722000   31.393000   23.485000 C     2 GLY     0.5973 ****
 13 O      26.806000   32.008000   24.024000 O     2 GLY    -0.5679 ****
 14 N      29.008000   31.677000   23.694000 N     3 ALA    -0.4157 ****
 15 H      29.696000   31.100000   23.232000 H     3 ALA     0.2719 ****
 16 CA     29.496000   32.762000   24.547000 C     3 ALA     0.0337 ****
 17 HA     28.771000   33.578000   24.532000 H     3 ALA     0.0823 ****
 18 CB     29.578000   32.223000   25.988000 C     3 ALA    -0.1825 ****
 19 HB1    30.304000   31.410000   26.047000 H     3 ALA     0.0603 ****
 20 HB2    29.856000   33.022000   26.676000 H     3 ALA     0.0603 ****
 21 HB3    28.601000   31.842000   26.291000 H     3 ALA     0.0603 ****
 22 C      30.825000   33.329000   23.994000 C     3 ALA     0.5973 ****
 23 O      30.931000   33.562000   22.794000 O     3 ALA    -0.5679 ****
 24 N      31.833000   33.540000   24.852000 N     4 ALA    -0.4157 ****
 25 H      31.662000   33.295000   25.814000 H     4 ALA     0.2719 ****
 26 CA     33.196000   33.998000   24.527000 C     4 ALA     0.0337 ****
 27 HA     33.710000   34.107000   25.482000 H     4 ALA     0.0823 ****
 28 CB     33.937000   32.881000   23.775000 C     4 ALA    -0.1825 ****
 29 HB1    33.510000   32.753000   22.779000 H     4 ALA     0.0603 ****
 30 HB2    34.991000   33.144000   23.672000 H     4 ALA     0.0603 ****
 31 HB3    33.860000   31.942000   24.324000 H     4 ALA     0.0603 ****
 32 C      33.347000   35.389000   23.856000 C     4 ALA     0.5973 ****
 33 O      34.470000   35.797000   23.570000 O     4 ALA    -0.5679 ****
 34 N      32.260000   36.147000   23.653000 N     5 NME    -0.4157 ****
 35 H      31.363000   35.751000   23.876000 H     5 NME     0.2719 ****
 36 CH3    32.287000   37.474000   23.039000 C     5 NME    -0.1490 ****
 37 HH31   31.280000   37.890000   22.993000 H     5 NME     0.0976 ****
 38 HH32   32.928000   38.138000   23.623000 H     5 NME     0.0976 ****
 39 HH33   32.692000   37.399000   22.028000 H     5 NME     0.0976 ****
@<TRIPOS>BOND
    1     5     6 1
    2     5     7 1
    3     2     3 1
    4     2     4 1
    5     2     5 1
    6     1     2 1
    7    12    13 1
    8    12    14 1
    9     9    10 1
   10     9    11 1
   11     9    12 1
   12     7     8 1
   13     7     9 1
   14    22    23 1
   15    22    24 1
   16    18    19 1
   17    18    20 1
   18    18    21 1
   19    16    17 1
   20    16    18 1
   21    16    22 1
   22    14    15 1
   23    14    16 1
   24    32    33 1
   25    32    34 1
   26    28    29 1
   27    28    30 1
   28    28    31 1
   29    26    27 1
   30    26    28 1
   31    26    32 1
   32    24    25 1
   33    24    26 1
   34    36    37 1
   35    36    38 1
   36    36    39 1
   37    34    35 1
   38    34    36 1
@<TRIPOS>SUBSTRUCTURE
      1  ACE              1 ****               0 ****  **** 
      2  GLY              7 ****               0 ****  **** 
      3  ALA             14 ****               0 ****  **** 
      4  ALA             24 ****               0 ****  **** 
      5  NME             34 ****               0 ****  **** 
