@<TRIPOS>MOLECULE
default_name
   39    38     5     0     1 
SMALL
USER_CHARGES
@<TRIPOS>ATOM
  1 H1     28.217000   29.781000   20.032000 H     1 ACE     0.1123 ****
  2 CH3    28.352000   30.506000   20.833000 C     1 ACE    -0.3662 ****
  3 H2     27.525000   31.213000   20.836000 H     1 ACE     0.1123 ****
  4 H3     29.290000   31.041000   20.695000 H     1 ACE     0.1123 ****
  5 C      28.386000   29.778000   22.156000 C     1 ACE     0.5972 ****
  6 O      28.238000   28.563000   22.197000 O     1 ACE    -0.5679 ****
  7 N      28.592000   30.521000   23.239000 N     2 GLY    -0.4157 ****
  8 H      28.733000   31.517000   23.109000 H     2 GLY     0.2719 ****
  9 CA     28.650000   29.983000   24.601000 C     2 GLY    -0.0252 ****
 10 HA2    27.654000   29.666000   24.909000 H     2 GLY     0.0698 ****
 11 HA3    29.310000   29.115000   24.619000 H     2 GLY     0.0698 ****
 12 C      29.152000   31.035000   25.587000 C     2 GLY     0.5973 ****
 13 O      28.577000   32.114000   25.685000 O     2 GLY    -0.5679 ****
 14 N      30.262000   30.753000   26.279000 N     3 ALA    -0.4157 ****
 15 H      30.669000   29.838000   26.173000 H     3 ALA     0.2719 ****
 16 CA     31.026000   31.745000   27.055000 C     3 ALA     0.0337 ****
 17 HA     30.352000   32.176000   27.798000 H     3 ALA     0.0823 ****
 18 CB     32.138000   30.998000   27.803000 C     3 ALA    -0.1825 ****
 19 HB1    32.845000   30.569000   27.092000 H     3 ALA     0.0603 ****
 20 HB2    32.671000   31.693000   28.454000 H     3 ALA     0.0603 ****
 21 HB3    31.710000   30.205000   28.417000 H     3 ALA     0.0603 ****
 22 C      31.589000   32.941000   26.238000 C     3 ALA     0.5973 ****
 23 O      32.238000   33.820000   26.799000 O     3 ALA    -0.5679 ****
 24 N      31.336000   32.991000   24.927000 N     4 ALA    -0.4157 ****
 25 H      30.778000   32.252000   24.531000 H     4 ALA     0.2719 ****
 26 CA     31.610000   34.105000   24.027000 C     4 ALA     0.0337 ****
 27 HA     31.498000   35.041000   24.578000 H     4 ALA     0.0823 ****
 28 CB     33.055000   33.999000   23.519000 C     4 ALA    -0.1825 ****
 29 HB1    33.189000   33.065000   22.970000 H     4 ALA     0.0603 ****
 30 HB2    33.280000   34.837000   22.859000 H     4 ALA     0.0603 ****
 31 HB3    33.745000   34.021000   24.363000 H     4 ALA     0.0603 ****
 32 C      30.591000   34.098000   22.869000 C     4 ALA     0.5973 ****
 33 O      29.985000   33.063000   22.575000 O     4 ALA    -0.5679 ****
 34 N      30.416000   35.245000   22.202000 N     5 NME    -0.4157 ****
 35 H      30.948000   36.049000   22.499000 H     5 NME     0.2719 ****
 36 CH3    29.490000   35.408000   21.083000 C     5 NME    -0.1490 ****
 37 HH31   28.472000   35.192000   21.412000 H     5 NME     0.0976 ****
 38 HH32   29.534000   36.429000   20.701000 H     5 NME     0.0976 ****
 39 HH33   29.753000   34.713000   20.282000 H     5 NME     0.0976 ****
@<TRIPOS>BOND
    1     5     6 1
    2     5     7 1
    3     2     3 1
    4     2     4 1
    5     2     5 1
    6     1     2 1
    7    12    13 1
    8    12    14 1
    9     9    10 1
   10     9    11 1
   11     9    12 1
   12     7     8 1
   13     7     9 1
   14    22    23 1
   15    22    24 1
   16    18    19 1
   17    18    20 1
   18    18    21 1
   19    16    17 1
   20    16    18 1
   21    16    22 1
   22    14    15 1
   23    14    16 1
   24    32    33 1
   25    32    34 1
   26    28    29 1
   27    28    30 1
   28    28    31 1
   29    26    27 1
   30    26    28 1
   31    26    32 1
   32    24    25 1
   33    24    26 1
   34    36    37 1
   35    36    38 1
   36    36    39 1
   37    34    35 1
   38    34    36 1
@<TRIPOS>SUBSTRUCTURE
      1  ACE              1 ****               0 ****  **** 
      2  GLY              7 ****               0 ****  **** 
      3  ALA             14 ****               0 ****  **** 
      4  ALA             24 ****               0 ****  **** 
      5  NME             34 ****               0 ****  **** 
