@<TRIPOS>MOLECULE
default_name
   39    38     5     0     1 
SMALL
USER_CHARGES
@<TRIPOS>ATOM
  1 H1     25.533000   28.245000   24.269000 H     1 ACE     0.1123 ****
  2 CH3    25.989000   28.693000   23.387000 C     1 ACE    -0.3662 ****
  3 H2     25.464000   29.613000   23.134000 H     1 ACE     0.1123 ****
  4 H3     25.936000   27.993000   22.555000 H     1 ACE     0.1123 ****
  5 C      27.435000   29.006000   23.689000 C     1 ACE     0.5972 ****
  6 O      27.906000   28.752000   24.790000 O     1 ACE    -0.5679 ****
  7 N      28.147000   29.563000   22.711000 N     2 GLY    -0.4157 ****
  8 H      27.683000   29.763000   21.839000 H     2 GLY     0.2719 ****
  9 CA     29.547000   29.970000   22.859000 C     2 GLY    -0.0252 ****
 10 HA2    30.103000   29.189000   23.380000 H     2 GLY     0.0698 ****
 11 HA3    29.989000   30.103000   21.872000 H     2 GLY     0.0698 ****
 12 C      29.690000   31.287000   23.628000 C     2 GLY     0.5973 ****
 13 O      29.612000   32.354000   23.024000 O     2 GLY    -0.5679 ****
 14 N      29.845000   31.212000   24.954000 N     3 ALA    -0.4157 ****
 15 H      29.758000   30.294000   25.367000 H     3 ALA     0.2719 ****
 16 CA     30.233000   32.293000   25.875000 C     3 ALA     0.0337 ****
 17 HA     29.404000   33.003000   25.881000 H     3 ALA     0.0823 ****
 18 CB     30.301000   31.675000   27.281000 C     3 ALA    -0.1825 ****
 19 HB1    31.137000   30.977000   27.342000 H     3 ALA     0.0603 ****
 20 HB2    30.442000   32.461000   28.024000 H     3 ALA     0.0603 ****
 21 HB3    29.371000   31.151000   27.506000 H     3 ALA     0.0603 ****
 22 C      31.494000   33.153000   25.568000 C     3 ALA     0.5973 ****
 23 O      31.859000   33.976000   26.401000 O     3 ALA    -0.5679 ****
 24 N      32.118000   33.075000   24.386000 N     4 ALA    -0.4157 ****
 25 H      31.920000   32.303000   23.779000 H     4 ALA     0.2719 ****
 26 CA     33.135000   34.027000   23.925000 C     4 ALA     0.0337 ****
 27 HA     33.776000   34.296000   24.767000 H     4 ALA     0.0823 ****
 28 CB     33.997000   33.314000   22.875000 C     4 ALA    -0.1825 ****
 29 HB1    33.389000   33.045000   22.010000 H     4 ALA     0.0603 ****
 30 HB2    34.797000   33.982000   22.550000 H     4 ALA     0.0603 ****
 31 HB3    34.443000   32.417000   23.304000 H     4 ALA     0.0603 ****
 32 C      32.548000   35.345000   23.368000 C     4 ALA     0.5973 ****
 33 O      33.296000   36.291000   23.131000 O     4 ALA    -0.5679 ****
 34 N      31.229000   35.409000   23.137000 N     5 NME    -0.4157 ****
 35 H      30.680000   34.584000   23.329000 H     5 NME     0.2719 ****
 36 CH3    30.539000   36.590000   22.622000 C     5 NME    -0.1490 ****
 37 HH31   29.482000   36.369000   22.466000 H     5 NME     0.0976 ****
 38 HH32   30.636000   37.410000   23.336000 H     5 NME     0.0976 ****
 39 HH33   30.989000   36.896000   21.676000 H     5 NME     0.0976 ****
@<TRIPOS>BOND
    1     5     6 1
    2     5     7 1
    3     2     3 1
    4     2     4 1
    5     2     5 1
    6     1     2 1
    7    12    13 1
    8    12    14 1
    9     9    10 1
   10     9    11 1
   11     9    12 1
   12     7     8 1
   13     7     9 1
   14    22    23 1
   15    22    24 1
   16    18    19 1
   17    18    20 1
   18    18    21 1
   19    16    17 1
   20    16    18 1
   21    16    22 1
   22    14    15 1
   23    14    16 1
   24    32    33 1
   25    32    34 1
   26    28    29 1
   27    28    30 1
   28    28    31 1
   29    26    27 1
   30    26    28 1
   31    26    32 1
   32    24    25 1
   33    24    26 1
   34    36    37 1
   35    36    38 1
   36    36    39 1
   37    34    35 1
   38    34    36 1
@<TRIPOS>SUBSTRUCTURE
      1  ACE              1 ****               0 ****  **** 
      2  GLY              7 ****               0 ****  **** 
      3  ALA             14 ****               0 ****  **** 
      4  ALA             24 ****               0 ****  **** 
      5  NME             34 ****               0 ****  **** 
