@<TRIPOS>MOLECULE
default_name
   39    38     5     0     1 
SMALL
USER_CHARGES
@<TRIPOS>ATOM
  1 H1     29.054000   27.166000   21.652000 H     1 ACE     0.1123 ****
  2 CH3    28.825000   28.225000   21.745000 C     1 ACE    -0.3662 ****
  3 H2     28.059000   28.501000   21.021000 H     1 ACE     0.1123 ****
  4 H3     29.721000   28.819000   21.570000 H     1 ACE     0.1123 ****
  5 C      28.310000   28.511000   23.135000 C     1 ACE     0.5972 ****
  6 O      27.201000   29.007000   23.292000 O     1 ACE    -0.5679 ****
  7 N      29.119000   28.198000   24.146000 N     2 GLY    -0.4157 ****
  8 H      30.029000   27.830000   23.921000 H     2 GLY     0.2719 ****
  9 CA     28.858000   28.546000   25.547000 C     2 GLY    -0.0252 ****
 10 HA2    27.791000   28.472000   25.759000 H     2 GLY     0.0698 ****
 11 HA3    29.390000   27.852000   26.198000 H     2 GLY     0.0698 ****
 12 C      29.335000   29.964000   25.859000 C     2 GLY     0.5973 ****
 13 O      30.413000   30.126000   26.423000 O     2 GLY    -0.5679 ****
 14 N      28.544000   30.969000   25.463000 N     3 ALA    -0.4157 ****
 15 H      27.680000   30.714000   25.013000 H     3 ALA     0.2719 ****
 16 CA     28.962000   32.370000   25.333000 C     3 ALA     0.0337 ****
 17 HA     28.101000   32.910000   24.939000 H     3 ALA     0.0823 ****
 18 CB     29.250000   32.980000   26.718000 C     3 ALA    -0.1825 ****
 19 HB1    30.176000   32.573000   27.127000 H     3 ALA     0.0603 ****
 20 HB2    29.351000   34.062000   26.638000 H     3 ALA     0.0603 ****
 21 HB3    28.429000   32.755000   27.400000 H     3 ALA     0.0603 ****
 22 C      30.087000   32.578000   24.288000 C     3 ALA     0.5973 ****
 23 O      30.535000   31.643000   23.622000 O     3 ALA    -0.5679 ****
 24 N      30.496000   33.834000   24.091000 N     4 ALA    -0.4157 ****
 25 H      30.117000   34.565000   24.675000 H     4 ALA     0.2719 ****
 26 CA     31.552000   34.236000   23.162000 C     4 ALA     0.0337 ****
 27 HA     32.305000   33.447000   23.120000 H     4 ALA     0.0823 ****
 28 CB     30.946000   34.410000   21.761000 C     4 ALA    -0.1825 ****
 29 HB1    30.186000   35.193000   21.779000 H     4 ALA     0.0603 ****
 30 HB2    31.725000   34.684000   21.050000 H     4 ALA     0.0603 ****
 31 HB3    30.489000   33.473000   21.437000 H     4 ALA     0.0603 ****
 32 C      32.240000   35.526000   23.645000 C     4 ALA     0.5973 ****
 33 O      31.664000   36.283000   24.427000 O     4 ALA    -0.5679 ****
 34 N      33.464000   35.782000   23.165000 N     5 NME    -0.4157 ****
 35 H      33.869000   35.116000   22.525000 H     5 NME     0.2719 ****
 36 CH3    34.249000   36.963000   23.518000 C     5 NME    -0.1490 ****
 37 HH31   34.424000   36.980000   24.596000 H     5 NME     0.0976 ****
 38 HH32   35.209000   36.950000   22.999000 H     5 NME     0.0976 ****
 39 HH33   33.701000   37.866000   23.241000 H     5 NME     0.0976 ****
@<TRIPOS>BOND
    1     5     6 1
    2     5     7 1
    3     2     3 1
    4     2     4 1
    5     2     5 1
    6     1     2 1
    7    12    13 1
    8    12    14 1
    9     9    10 1
   10     9    11 1
   11     9    12 1
   12     7     8 1
   13     7     9 1
   14    22    23 1
   15    22    24 1
   16    18    19 1
   17    18    20 1
   18    18    21 1
   19    16    17 1
   20    16    18 1
   21    16    22 1
   22    14    15 1
   23    14    16 1
   24    32    33 1
   25    32    34 1
   26    28    29 1
   27    28    30 1
   28    28    31 1
   29    26    27 1
   30    26    28 1
   31    26    32 1
   32    24    25 1
   33    24    26 1
   34    36    37 1
   35    36    38 1
   36    36    39 1
   37    34    35 1
   38    34    36 1
@<TRIPOS>SUBSTRUCTURE
      1  ACE              1 ****               0 ****  **** 
      2  GLY              7 ****               0 ****  **** 
      3  ALA             14 ****               0 ****  **** 
      4  ALA             24 ****               0 ****  **** 
      5  NME             34 ****               0 ****  **** 
