@<TRIPOS>MOLECULE
default_name
   39    38     5     0     1 
SMALL
USER_CHARGES
@<TRIPOS>ATOM
  1 H1     25.869000   27.284000   21.400000 H     1 ACE     0.1123 ****
  2 CH3    26.722000   27.957000   21.481000 C     1 ACE    -0.3662 ****
  3 H2     26.534000   28.857000   20.899000 H     1 ACE     0.1123 ****
  4 H3     27.617000   27.458000   21.116000 H     1 ACE     0.1123 ****
  5 C      26.914000   28.331000   22.932000 C     1 ACE     0.5972 ****
  6 O      26.165000   27.883000   23.790000 O     1 ACE    -0.5679 ****
  7 N      27.922000   29.154000   23.208000 N     2 GLY    -0.4157 ****
  8 H      28.508000   29.486000   22.455000 H     2 GLY     0.2719 ****
  9 CA     28.251000   29.623000   24.555000 C     2 GLY    -0.0252 ****
 10 HA2    27.402000   30.176000   24.957000 H     2 GLY     0.0698 ****
 11 HA3    28.438000   28.764000   25.200000 H     2 GLY     0.0698 ****
 12 C      29.482000   30.533000   24.574000 C     2 GLY     0.5973 ****
 13 O      30.122000   30.722000   23.542000 O     2 GLY    -0.5679 ****
 14 N      29.845000   31.007000   25.773000 N     3 ALA    -0.4157 ****
 15 H      29.302000   30.664000   26.548000 H     3 ALA     0.2719 ****
 16 CA     30.675000   32.186000   26.081000 C     3 ALA     0.0337 ****
 17 HA     30.073000   32.851000   26.700000 H     3 ALA     0.0823 ****
 18 CB     31.838000   31.685000   26.959000 C     3 ALA    -0.1825 ****
 19 HB1    32.496000   31.038000   26.377000 H     3 ALA     0.0603 ****
 20 HB2    32.405000   32.530000   27.354000 H     3 ALA     0.0603 ****
 21 HB3    31.446000   31.119000   27.805000 H     3 ALA     0.0603 ****
 22 C      31.128000   33.053000   24.871000 C     3 ALA     0.5973 ****
 23 O      30.281000   33.499000   24.101000 O     3 ALA    -0.5679 ****
 24 N      32.409000   33.440000   24.806000 N     4 ALA    -0.4157 ****
 25 H      33.033000   33.070000   25.503000 H     4 ALA     0.2719 ****
 26 CA     32.990000   34.380000   23.839000 C     4 ALA     0.0337 ****
 27 HA     34.027000   34.526000   24.144000 H     4 ALA     0.0823 ****
 28 CB     33.056000   33.741000   22.441000 C     4 ALA    -0.1825 ****
 29 HB1    32.053000   33.527000   22.070000 H     4 ALA     0.0603 ****
 30 HB2    33.558000   34.419000   21.750000 H     4 ALA     0.0603 ****
 31 HB3    33.618000   32.807000   22.490000 H     4 ALA     0.0603 ****
 32 C      32.376000   35.797000   23.886000 C     4 ALA     0.5973 ****
 33 O      32.866000   36.635000   24.639000 O     4 ALA    -0.5679 ****
 34 N      31.334000   36.077000   23.091000 N     5 NME    -0.4157 ****
 35 H      30.950000   35.316000   22.550000 H     5 NME     0.2719 ****
 36 CH3    30.663000   37.373000   23.035000 C     5 NME    -0.1490 ****
 37 HH31   30.252000   37.615000   24.017000 H     5 NME     0.0976 ****
 38 HH32   31.380000   38.148000   22.755000 H     5 NME     0.0976 ****
 39 HH33   29.855000   37.346000   22.304000 H     5 NME     0.0976 ****
@<TRIPOS>BOND
    1     5     6 1
    2     5     7 1
    3     2     3 1
    4     2     4 1
    5     2     5 1
    6     1     2 1
    7    12    13 1
    8    12    14 1
    9     9    10 1
   10     9    11 1
   11     9    12 1
   12     7     8 1
   13     7     9 1
   14    22    23 1
   15    22    24 1
   16    18    19 1
   17    18    20 1
   18    18    21 1
   19    16    17 1
   20    16    18 1
   21    16    22 1
   22    14    15 1
   23    14    16 1
   24    32    33 1
   25    32    34 1
   26    28    29 1
   27    28    30 1
   28    28    31 1
   29    26    27 1
   30    26    28 1
   31    26    32 1
   32    24    25 1
   33    24    26 1
   34    36    37 1
   35    36    38 1
   36    36    39 1
   37    34    35 1
   38    34    36 1
@<TRIPOS>SUBSTRUCTURE
      1  ACE              1 ****               0 ****  **** 
      2  GLY              7 ****               0 ****  **** 
      3  ALA             14 ****               0 ****  **** 
      4  ALA             24 ****               0 ****  **** 
      5  NME             34 ****               0 ****  **** 
