@<TRIPOS>MOLECULE
default_name
   40    39     5     0     1 
SMALL
USER_CHARGES
@<TRIPOS>ATOM
  1 H1     27.438000   32.916000   21.815000 H     1 ACE     0.1123 ****
  2 CH3    27.912000   31.953000   21.634000 C     1 ACE    -0.3662 ****
  3 H2     28.875000   32.117000   21.153000 H     1 ACE     0.1123 ****
  4 H3     27.275000   31.348000   20.992000 H     1 ACE     0.1123 ****
  5 C      28.111000   31.246000   22.952000 C     1 ACE     0.5972 ****
  6 O      27.614000   31.696000   23.975000 O     1 ACE    -0.5679 ****
  7 N      28.845000   30.132000   22.925000 N     2 SER    -0.4157 ****
  8 H      29.215000   29.852000   22.031000 H     2 SER     0.2719 ****
  9 CA     29.030000   29.211000   24.065000 C     2 SER    -0.0249 ****
 10 HA     28.119000   29.249000   24.665000 H     2 SER     0.0843 ****
 11 CB     29.149000   27.773000   23.535000 C     2 SER     0.2117 ****
 12 HB2    28.328000   27.572000   22.845000 H     2 SER     0.0352 ****
 13 HB3    30.095000   27.657000   23.003000 H     2 SER     0.0352 ****
 14 OG     29.087000   26.840000   24.590000 O     2 SER    -0.6546 ****
 15 HG     29.777000   27.088000   25.228000 H     2 SER     0.4275 ****
 16 C      30.187000   29.576000   25.026000 C     2 SER     0.5973 ****
 17 O      30.741000   28.694000   25.679000 O     2 SER    -0.5679 ****
 18 N      30.562000   30.859000   25.094000 N     3 ALA    -0.4157 ****
 19 H      29.999000   31.506000   24.566000 H     3 ALA     0.2719 ****
 20 CA     31.642000   31.466000   25.891000 C     3 ALA     0.0337 ****
 21 HA     31.349000   31.508000   26.942000 H     3 ALA     0.0823 ****
 22 CB     32.967000   30.687000   25.756000 C     3 ALA    -0.1825 ****
 23 HB1    33.191000   30.478000   24.710000 H     3 ALA     0.0603 ****
 24 HB2    33.781000   31.271000   26.189000 H     3 ALA     0.0603 ****
 25 HB3    32.908000   29.747000   26.304000 H     3 ALA     0.0603 ****
 26 C      31.861000   32.904000   25.386000 C     3 ALA     0.5973 ****
 27 O      31.607000   33.863000   26.109000 O     3 ALA    -0.5679 ****
 28 N      32.244000   33.060000   24.114000 N     4 GLY    -0.4157 ****
 29 H      32.445000   32.232000   23.576000 H     4 GLY     0.2719 ****
 30 CA     32.152000   34.334000   23.398000 C     4 GLY    -0.0252 ****
 31 HA2    32.470000   35.154000   24.042000 H     4 GLY     0.0698 ****
 32 HA3    32.798000   34.310000   22.520000 H     4 GLY     0.0698 ****
 33 C      30.715000   34.577000   22.936000 C     4 GLY     0.5973 ****
 34 O      30.359000   34.177000   21.831000 O     4 GLY    -0.5679 ****
 35 N      29.887000   35.179000   23.798000 N     5 NME    -0.4157 ****
 36 H      30.256000   35.416000   24.709000 H     5 NME     0.2719 ****
 37 CH3    28.463000   35.402000   23.560000 C     5 NME    -0.1490 ****
 38 HH31   27.905000   34.489000   23.784000 H     5 NME     0.0976 ****
 39 HH32   28.098000   36.207000   24.200000 H     5 NME     0.0976 ****
 40 HH33   28.294000   35.672000   22.515000 H     5 NME     0.0976 ****
@<TRIPOS>BOND
    1     5     6 1
    2     5     7 1
    3     2     3 1
    4     2     4 1
    5     2     5 1
    6     1     2 1
    7    16    17 1
    8    16    18 1
    9    14    15 1
   10    11    12 1
   11    11    13 1
   12    11    14 1
   13     9    10 1
   14     9    11 1
   15     9    16 1
   16     7     8 1
   17     7     9 1
   18    26    27 1
   19    26    28 1
   20    22    23 1
   21    22    24 1
   22    22    25 1
   23    20    21 1
   24    20    22 1
   25    20    26 1
   26    18    19 1
   27    18    20 1
   28    33    34 1
   29    33    35 1
   30    30    31 1
   31    30    32 1
   32    30    33 1
   33    28    29 1
   34    28    30 1
   35    37    38 1
   36    37    39 1
   37    37    40 1
   38    35    36 1
   39    35    37 1
@<TRIPOS>SUBSTRUCTURE
      1  ACE              1 ****               0 ****  **** 
      2  SER              7 ****               0 ****  **** 
      3  ALA             18 ****               0 ****  **** 
      4  GLY             28 ****               0 ****  **** 
      5  NME             35 ****               0 ****  **** 
