@<TRIPOS>MOLECULE
default_name
   40    39     5     0     1 
SMALL
USER_CHARGES
@<TRIPOS>ATOM
  1 H1     24.864000   28.285000   25.292000 H     1 ACE     0.1123 ****
  2 CH3    25.320000   28.664000   24.378000 C     1 ACE    -0.3662 ****
  3 H2     24.961000   29.673000   24.183000 H     1 ACE     0.1123 ****
  4 H3     25.065000   28.011000   23.545000 H     1 ACE     0.1123 ****
  5 C      26.819000   28.690000   24.554000 C     1 ACE     0.5972 ****
  6 O      27.323000   28.319000   25.606000 O     1 ACE    -0.5679 ****
  7 N      27.534000   29.129000   23.521000 N     2 SER    -0.4157 ****
  8 H      27.049000   29.414000   22.683000 H     2 SER     0.2719 ****
  9 CA     28.999000   29.229000   23.504000 C     2 SER    -0.0249 ****
 10 HA     29.334000   29.496000   24.503000 H     2 SER     0.0843 ****
 11 CB     29.577000   27.859000   23.124000 C     2 SER     0.2117 ****
 12 HB2    29.302000   27.130000   23.889000 H     2 SER     0.0352 ****
 13 HB3    29.148000   27.544000   22.172000 H     2 SER     0.0352 ****
 14 OG     30.984000   27.892000   23.000000 O     2 SER    -0.6546 ****
 15 HG     31.280000   27.047000   22.650000 H     2 SER     0.4275 ****
 16 C      29.426000   30.306000   22.495000 C     2 SER     0.5973 ****
 17 O      29.015000   30.198000   21.338000 O     2 SER    -0.5679 ****
 18 N      30.116000   31.397000   22.882000 N     3 ALA    -0.4157 ****
 19 H      30.280000   32.101000   22.168000 H     3 ALA     0.2719 ****
 20 CA     30.853000   31.707000   24.122000 C     3 ALA     0.0337 ****
 21 HA     30.168000   31.840000   24.960000 H     3 ALA     0.0823 ****
 22 CB     31.879000   30.594000   24.433000 C     3 ALA    -0.1825 ****
 23 HB1    32.461000   30.358000   23.540000 H     3 ALA     0.0603 ****
 24 HB2    32.561000   30.900000   25.225000 H     3 ALA     0.0603 ****
 25 HB3    31.389000   29.693000   24.790000 H     3 ALA     0.0603 ****
 26 C      31.655000   33.015000   23.896000 C     3 ALA     0.5973 ****
 27 O      31.594000   33.613000   22.820000 O     3 ALA    -0.5679 ****
 28 N      32.412000   33.472000   24.900000 N     4 GLY    -0.4157 ****
 29 H      32.418000   32.963000   25.770000 H     4 GLY     0.2719 ****
 30 CA     33.175000   34.723000   24.839000 C     4 GLY    -0.0252 ****
 31 HA2    33.923000   34.729000   25.632000 H     4 GLY     0.0698 ****
 32 HA3    33.694000   34.793000   23.882000 H     4 GLY     0.0698 ****
 33 C      32.284000   35.954000   25.018000 C     4 GLY     0.5973 ****
 34 O      32.052000   36.379000   26.146000 O     4 GLY    -0.5679 ****
 35 N      31.791000   36.522000   23.911000 N     5 NME    -0.4157 ****
 36 H      31.978000   36.064000   23.030000 H     5 NME     0.2719 ****
 37 CH3    30.932000   37.704000   23.908000 C     5 NME    -0.1490 ****
 38 HH31   30.029000   37.504000   24.489000 H     5 NME     0.0976 ****
 39 HH32   31.459000   38.545000   24.362000 H     5 NME     0.0976 ****
 40 HH33   30.651000   37.962000   22.886000 H     5 NME     0.0976 ****
@<TRIPOS>BOND
    1     5     6 1
    2     5     7 1
    3     2     3 1
    4     2     4 1
    5     2     5 1
    6     1     2 1
    7    16    17 1
    8    16    18 1
    9    14    15 1
   10    11    12 1
   11    11    13 1
   12    11    14 1
   13     9    10 1
   14     9    11 1
   15     9    16 1
   16     7     8 1
   17     7     9 1
   18    26    27 1
   19    26    28 1
   20    22    23 1
   21    22    24 1
   22    22    25 1
   23    20    21 1
   24    20    22 1
   25    20    26 1
   26    18    19 1
   27    18    20 1
   28    33    34 1
   29    33    35 1
   30    30    31 1
   31    30    32 1
   32    30    33 1
   33    28    29 1
   34    28    30 1
   35    37    38 1
   36    37    39 1
   37    37    40 1
   38    35    36 1
   39    35    37 1
@<TRIPOS>SUBSTRUCTURE
      1  ACE              1 ****               0 ****  **** 
      2  SER              7 ****               0 ****  **** 
      3  ALA             18 ****               0 ****  **** 
      4  GLY             28 ****               0 ****  **** 
      5  NME             35 ****               0 ****  **** 
