@<TRIPOS>MOLECULE
default_name
   40    39     5     0     1 
SMALL
USER_CHARGES
@<TRIPOS>ATOM
  1 H1     25.216000   29.201000   21.134000 H     1 ACE     0.1123 ****
  2 CH3    26.305000   29.175000   21.122000 C     1 ACE    -0.3662 ****
  3 H2     26.680000   29.913000   20.417000 H     1 ACE     0.1123 ****
  4 H3     26.644000   28.181000   20.835000 H     1 ACE     0.1123 ****
  5 C      26.817000   29.499000   22.506000 C     1 ACE     0.5972 ****
  6 O      26.033000   29.731000   23.415000 O     1 ACE    -0.5679 ****
  7 N      28.139000   29.508000   22.667000 N     2 SER    -0.4157 ****
  8 H      28.725000   29.333000   21.863000 H     2 SER     0.2719 ****
  9 CA     28.827000   29.872000   23.913000 C     2 SER    -0.0249 ****
 10 HA     28.309000   30.719000   24.364000 H     2 SER     0.0843 ****
 11 CB     28.766000   28.701000   24.903000 C     2 SER     0.2117 ****
 12 HB2    27.725000   28.408000   25.047000 H     2 SER     0.0352 ****
 13 HB3    29.320000   27.852000   24.501000 H     2 SER     0.0352 ****
 14 OG     29.311000   29.077000   26.154000 O     2 SER    -0.6546 ****
 15 HG     29.072000   28.408000   26.804000 H     2 SER     0.4275 ****
 16 C      30.276000   30.296000   23.630000 C     2 SER     0.5973 ****
 17 O      30.779000   30.092000   22.525000 O     2 SER    -0.5679 ****
 18 N      30.942000   30.916000   24.607000 N     3 ALA    -0.4157 ****
 19 H      30.485000   30.974000   25.507000 H     3 ALA     0.2719 ****
 20 CA     32.341000   31.334000   24.534000 C     3 ALA     0.0337 ****
 21 HA     32.742000   31.109000   23.545000 H     3 ALA     0.0823 ****
 22 CB     33.146000   30.514000   25.551000 C     3 ALA    -0.1825 ****
 23 HB1    33.058000   29.451000   25.321000 H     3 ALA     0.0603 ****
 24 HB2    34.196000   30.803000   25.507000 H     3 ALA     0.0603 ****
 25 HB3    32.771000   30.695000   26.560000 H     3 ALA     0.0603 ****
 26 C      32.461000   32.851000   24.760000 C     3 ALA     0.5973 ****
 27 O      32.326000   33.336000   25.880000 O     3 ALA    -0.5679 ****
 28 N      32.665000   33.607000   23.677000 N     4 GLY    -0.4157 ****
 29 H      32.729000   33.142000   22.784000 H     4 GLY     0.2719 ****
 30 CA     32.821000   35.071000   23.690000 C     4 GLY    -0.0252 ****
 31 HA2    33.417000   35.353000   24.559000 H     4 GLY     0.0698 ****
 32 HA3    33.367000   35.378000   22.798000 H     4 GLY     0.0698 ****
 33 C      31.519000   35.886000   23.745000 C     4 GLY     0.5973 ****
 34 O      31.521000   37.038000   23.323000 O     4 GLY    -0.5679 ****
 35 N      30.404000   35.299000   24.199000 N     5 NME    -0.4157 ****
 36 H      30.486000   34.365000   24.568000 H     5 NME     0.2719 ****
 37 CH3    29.099000   35.953000   24.269000 C     5 NME    -0.1490 ****
 38 HH31   28.796000   36.280000   23.273000 H     5 NME     0.0976 ****
 39 HH32   28.352000   35.266000   24.668000 H     5 NME     0.0976 ****
 40 HH33   29.163000   36.830000   24.917000 H     5 NME     0.0976 ****
@<TRIPOS>BOND
    1     5     6 1
    2     5     7 1
    3     2     3 1
    4     2     4 1
    5     2     5 1
    6     1     2 1
    7    16    17 1
    8    16    18 1
    9    14    15 1
   10    11    12 1
   11    11    13 1
   12    11    14 1
   13     9    10 1
   14     9    11 1
   15     9    16 1
   16     7     8 1
   17     7     9 1
   18    26    27 1
   19    26    28 1
   20    22    23 1
   21    22    24 1
   22    22    25 1
   23    20    21 1
   24    20    22 1
   25    20    26 1
   26    18    19 1
   27    18    20 1
   28    33    34 1
   29    33    35 1
   30    30    31 1
   31    30    32 1
   32    30    33 1
   33    28    29 1
   34    28    30 1
   35    37    38 1
   36    37    39 1
   37    37    40 1
   38    35    36 1
   39    35    37 1
@<TRIPOS>SUBSTRUCTURE
      1  ACE              1 ****               0 ****  **** 
      2  SER              7 ****               0 ****  **** 
      3  ALA             18 ****               0 ****  **** 
      4  GLY             28 ****               0 ****  **** 
      5  NME             35 ****               0 ****  **** 
