@<TRIPOS>MOLECULE
default_name
   40    39     5     0     1 
SMALL
USER_CHARGES
@<TRIPOS>ATOM
  1 H1     25.575000   26.708000   21.842000 H     1 ACE     0.1123 ****
  2 CH3    26.202000   27.594000   21.749000 C     1 ACE    -0.3662 ****
  3 H2     25.574000   28.479000   21.668000 H     1 ACE     0.1123 ****
  4 H3     26.834000   27.505000   20.868000 H     1 ACE     0.1123 ****
  5 C      27.071000   27.710000   22.979000 C     1 ACE     0.5972 ****
  6 O      26.997000   26.872000   23.868000 O     1 ACE    -0.5679 ****
  7 N      27.904000   28.747000   23.026000 N     2 SER    -0.4157 ****
  8 H      27.893000   29.413000   22.266000 H     2 SER     0.2719 ****
  9 CA     28.764000   29.081000   24.169000 C     2 SER    -0.0249 ****
 10 HA     28.198000   28.927000   25.088000 H     2 SER     0.0843 ****
 11 CB     29.981000   28.147000   24.198000 C     2 SER     0.2117 ****
 12 HB2    29.637000   27.112000   24.204000 H     2 SER     0.0352 ****
 13 HB3    30.589000   28.311000   23.307000 H     2 SER     0.0352 ****
 14 OG     30.764000   28.374000   25.356000 O     2 SER    -0.6546 ****
 15 HG     31.361000   27.626000   25.465000 H     2 SER     0.4275 ****
 16 C      29.192000   30.555000   24.112000 C     2 SER     0.5973 ****
 17 O      29.060000   31.184000   23.066000 O     2 SER    -0.5679 ****
 18 N      29.701000   31.079000   25.233000 N     3 ALA    -0.4157 ****
 19 H      29.846000   30.418000   25.982000 H     3 ALA     0.2719 ****
 20 CA     30.125000   32.461000   25.495000 C     3 ALA     0.0337 ****
 21 HA     29.237000   32.992000   25.843000 H     3 ALA     0.0823 ****
 22 CB     31.118000   32.459000   26.668000 C     3 ALA    -0.1825 ****
 23 HB1    32.004000   31.875000   26.417000 H     3 ALA     0.0603 ****
 24 HB2    31.414000   33.483000   26.901000 H     3 ALA     0.0603 ****
 25 HB3    30.645000   32.024000   27.550000 H     3 ALA     0.0603 ****
 26 C      30.608000   33.273000   24.270000 C     3 ALA     0.5973 ****
 27 O      29.845000   34.049000   23.698000 O     3 ALA    -0.5679 ****
 28 N      31.905000   33.201000   23.946000 N     4 GLY    -0.4157 ****
 29 H      32.496000   32.588000   24.482000 H     4 GLY     0.2719 ****
 30 CA     32.522000   33.996000   22.881000 C     4 GLY    -0.0252 ****
 31 HA2    33.471000   33.544000   22.596000 H     4 GLY     0.0698 ****
 32 HA3    31.871000   34.005000   22.006000 H     4 GLY     0.0698 ****
 33 C      32.793000   35.437000   23.319000 C     4 GLY     0.5973 ****
 34 O      33.853000   35.716000   23.873000 O     4 GLY    -0.5679 ****
 35 N      31.844000   36.345000   23.066000 N     5 NME    -0.4157 ****
 36 H      30.976000   36.011000   22.671000 H     5 NME     0.2719 ****
 37 CH3    31.948000   37.761000   23.411000 C     5 NME    -0.1490 ****
 38 HH31   32.089000   37.867000   24.488000 H     5 NME     0.0976 ****
 39 HH32   32.806000   38.203000   22.901000 H     5 NME     0.0976 ****
 40 HH33   31.040000   38.287000   23.113000 H     5 NME     0.0976 ****
@<TRIPOS>BOND
    1     5     6 1
    2     5     7 1
    3     2     3 1
    4     2     4 1
    5     2     5 1
    6     1     2 1
    7    16    17 1
    8    16    18 1
    9    14    15 1
   10    11    12 1
   11    11    13 1
   12    11    14 1
   13     9    10 1
   14     9    11 1
   15     9    16 1
   16     7     8 1
   17     7     9 1
   18    26    27 1
   19    26    28 1
   20    22    23 1
   21    22    24 1
   22    22    25 1
   23    20    21 1
   24    20    22 1
   25    20    26 1
   26    18    19 1
   27    18    20 1
   28    33    34 1
   29    33    35 1
   30    30    31 1
   31    30    32 1
   32    30    33 1
   33    28    29 1
   34    28    30 1
   35    37    38 1
   36    37    39 1
   37    37    40 1
   38    35    36 1
   39    35    37 1
@<TRIPOS>SUBSTRUCTURE
      1  ACE              1 ****               0 ****  **** 
      2  SER              7 ****               0 ****  **** 
      3  ALA             18 ****               0 ****  **** 
      4  GLY             28 ****               0 ****  **** 
      5  NME             35 ****               0 ****  **** 
