@<TRIPOS>MOLECULE
default_name
   40    39     5     0     1 
SMALL
USER_CHARGES
@<TRIPOS>ATOM
  1 H1     25.738000   28.407000   21.122000 H     1 ACE     0.1123 ****
  2 CH3    26.478000   29.193000   21.269000 C     1 ACE    -0.3662 ****
  3 H2     25.977000   30.156000   21.338000 H     1 ACE     0.1123 ****
  4 H3     27.178000   29.196000   20.436000 H     1 ACE     0.1123 ****
  5 C      27.227000   28.926000   22.553000 C     1 ACE     0.5972 ****
  6 O      26.958000   27.945000   23.233000 O     1 ACE    -0.5679 ****
  7 N      28.178000   29.797000   22.883000 N     2 SER    -0.4157 ****
  8 H      28.332000   30.595000   22.285000 H     2 SER     0.2719 ****
  9 CA     28.961000   29.744000   24.126000 C     2 SER    -0.0249 ****
 10 HA     28.297000   29.468000   24.945000 H     2 SER     0.0843 ****
 11 CB     30.045000   28.665000   24.012000 C     2 SER     0.2117 ****
 12 HB2    29.572000   27.703000   23.809000 H     2 SER     0.0352 ****
 13 HB3    30.718000   28.908000   23.188000 H     2 SER     0.0352 ****
 14 OG     30.785000   28.570000   25.214000 O     2 SER    -0.6546 ****
 15 HG     31.269000   27.737000   25.207000 H     2 SER     0.4275 ****
 16 C      29.577000   31.114000   24.447000 C     2 SER     0.5973 ****
 17 O      29.666000   31.959000   23.559000 O     2 SER    -0.5679 ****
 18 N      29.907000   31.341000   25.724000 N     3 ALA    -0.4157 ****
 19 H      29.711000   30.552000   26.322000 H     3 ALA     0.2719 ****
 20 CA     30.794000   32.336000   26.362000 C     3 ALA     0.0337 ****
 21 HA     30.156000   32.961000   26.989000 H     3 ALA     0.0823 ****
 22 CB     31.715000   31.551000   27.306000 C     3 ALA    -0.1825 ****
 23 HB1    32.367000   30.892000   26.731000 H     3 ALA     0.0603 ****
 24 HB2    32.330000   32.246000   27.881000 H     3 ALA     0.0603 ****
 25 HB3    31.123000   30.954000   28.001000 H     3 ALA     0.0603 ****
 26 C      31.645000   33.335000   25.533000 C     3 ALA     0.5973 ****
 27 O      31.810000   34.467000   25.975000 O     3 ALA    -0.5679 ****
 28 N      32.148000   32.985000   24.343000 N     4 GLY    -0.4157 ****
 29 H      32.062000   32.025000   24.054000 H     4 GLY     0.2719 ****
 30 CA     32.928000   33.881000   23.474000 C     4 GLY    -0.0252 ****
 31 HA2    33.638000   34.439000   24.086000 H     4 GLY     0.0698 ****
 32 HA3    33.496000   33.279000   22.766000 H     4 GLY     0.0698 ****
 33 C      32.118000   34.905000   22.663000 C     4 GLY     0.5973 ****
 34 O      32.702000   35.621000   21.854000 O     4 GLY    -0.5679 ****
 35 N      30.792000   34.966000   22.840000 N     5 NME    -0.4157 ****
 36 H      30.388000   34.337000   23.515000 H     5 NME     0.2719 ****
 37 CH3    29.906000   35.889000   22.135000 C     5 NME    -0.1490 ****
 38 HH31   30.033000   35.771000   21.057000 H     5 NME     0.0976 ****
 39 HH32   28.867000   35.687000   22.401000 H     5 NME     0.0976 ****
 40 HH33   30.156000   36.916000   22.407000 H     5 NME     0.0976 ****
@<TRIPOS>BOND
    1     5     6 1
    2     5     7 1
    3     2     3 1
    4     2     4 1
    5     2     5 1
    6     1     2 1
    7    16    17 1
    8    16    18 1
    9    14    15 1
   10    11    12 1
   11    11    13 1
   12    11    14 1
   13     9    10 1
   14     9    11 1
   15     9    16 1
   16     7     8 1
   17     7     9 1
   18    26    27 1
   19    26    28 1
   20    22    23 1
   21    22    24 1
   22    22    25 1
   23    20    21 1
   24    20    22 1
   25    20    26 1
   26    18    19 1
   27    18    20 1
   28    33    34 1
   29    33    35 1
   30    30    31 1
   31    30    32 1
   32    30    33 1
   33    28    29 1
   34    28    30 1
   35    37    38 1
   36    37    39 1
   37    37    40 1
   38    35    36 1
   39    35    37 1
@<TRIPOS>SUBSTRUCTURE
      1  ACE              1 ****               0 ****  **** 
      2  SER              7 ****               0 ****  **** 
      3  ALA             18 ****               0 ****  **** 
      4  GLY             28 ****               0 ****  **** 
      5  NME             35 ****               0 ****  **** 
