@<TRIPOS>MOLECULE
default_name
   40    39     5     0     1 
SMALL
USER_CHARGES
@<TRIPOS>ATOM
  1 H1     26.648000   24.980000   25.130000 H     1 ACE     0.1123 ****
  2 CH3    26.457000   26.000000   24.799000 C     1 ACE    -0.3662 ****
  3 H2     25.999000   26.567000   25.607000 H     1 ACE     0.1123 ****
  4 H3     25.797000   25.986000   23.934000 H     1 ACE     0.1123 ****
  5 C      27.769000   26.644000   24.418000 C     1 ACE     0.5972 ****
  6 O      28.813000   26.013000   24.505000 O     1 ACE    -0.5679 ****
  7 N      27.711000   27.902000   23.987000 N     2 SER    -0.4157 ****
  8 H      26.814000   28.368000   23.974000 H     2 SER     0.2719 ****
  9 CA     28.876000   28.733000   23.653000 C     2 SER    -0.0249 ****
 10 HA     29.657000   28.557000   24.394000 H     2 SER     0.0843 ****
 11 CB     29.428000   28.331000   22.279000 C     2 SER     0.2117 ****
 12 HB2    29.608000   27.255000   22.262000 H     2 SER     0.0352 ****
 13 HB3    28.700000   28.581000   21.506000 H     2 SER     0.0352 ****
 14 OG     30.648000   29.000000   22.023000 O     2 SER    -0.6546 ****
 15 HG     31.000000   28.693000   21.181000 H     2 SER     0.4275 ****
 16 C      28.505000   30.225000   23.698000 C     2 SER     0.5973 ****
 17 O      27.326000   30.563000   23.816000 O     2 SER    -0.5679 ****
 18 N      29.498000   31.113000   23.605000 N     3 ALA    -0.4157 ****
 19 H      30.408000   30.746000   23.354000 H     3 ALA     0.2719 ****
 20 CA     29.356000   32.571000   23.663000 C     3 ALA     0.0337 ****
 21 HA     28.539000   32.881000   23.011000 H     3 ALA     0.0823 ****
 22 CB     29.008000   32.967000   25.115000 C     3 ALA    -0.1825 ****
 23 HB1    29.814000   32.677000   25.791000 H     3 ALA     0.0603 ****
 24 HB2    28.841000   34.042000   25.183000 H     3 ALA     0.0603 ****
 25 HB3    28.090000   32.469000   25.430000 H     3 ALA     0.0603 ****
 26 C      30.654000   33.244000   23.151000 C     3 ALA     0.5973 ****
 27 O      31.200000   32.825000   22.132000 O     3 ALA    -0.5679 ****
 28 N      31.178000   34.260000   23.843000 N     4 GLY    -0.4157 ****
 29 H      30.712000   34.570000   24.685000 H     4 GLY     0.2719 ****
 30 CA     32.405000   34.969000   23.476000 C     4 GLY    -0.0252 ****
 31 HA2    33.233000   34.260000   23.438000 H     4 GLY     0.0698 ****
 32 HA3    32.285000   35.410000   22.487000 H     4 GLY     0.0698 ****
 33 C      32.753000   36.079000   24.472000 C     4 GLY     0.5973 ****
 34 O      32.029000   36.294000   25.442000 O     4 GLY    -0.5679 ****
 35 N      33.866000   36.781000   24.228000 N     5 NME    -0.4157 ****
 36 H      34.407000   36.543000   23.411000 H     5 NME     0.2719 ****
 37 CH3    34.343000   37.872000   25.076000 C     5 NME    -0.1490 ****
 38 HH31   33.586000   38.657000   25.127000 H     5 NME     0.0976 ****
 39 HH32   34.526000   37.501000   26.086000 H     5 NME     0.0976 ****
 40 HH33   35.267000   38.290000   24.673000 H     5 NME     0.0976 ****
@<TRIPOS>BOND
    1     5     6 1
    2     5     7 1
    3     2     3 1
    4     2     4 1
    5     2     5 1
    6     1     2 1
    7    16    17 1
    8    16    18 1
    9    14    15 1
   10    11    12 1
   11    11    13 1
   12    11    14 1
   13     9    10 1
   14     9    11 1
   15     9    16 1
   16     7     8 1
   17     7     9 1
   18    26    27 1
   19    26    28 1
   20    22    23 1
   21    22    24 1
   22    22    25 1
   23    20    21 1
   24    20    22 1
   25    20    26 1
   26    18    19 1
   27    18    20 1
   28    33    34 1
   29    33    35 1
   30    30    31 1
   31    30    32 1
   32    30    33 1
   33    28    29 1
   34    28    30 1
   35    37    38 1
   36    37    39 1
   37    37    40 1
   38    35    36 1
   39    35    37 1
@<TRIPOS>SUBSTRUCTURE
      1  ACE              1 ****               0 ****  **** 
      2  SER              7 ****               0 ****  **** 
      3  ALA             18 ****               0 ****  **** 
      4  GLY             28 ****               0 ****  **** 
      5  NME             35 ****               0 ****  **** 
