@<TRIPOS>MOLECULE
default_name
   40    39     5     0     1 
SMALL
USER_CHARGES
@<TRIPOS>ATOM
  1 H1     26.028000   24.991000   24.001000 H     1 ACE     0.1123 ****
  2 CH3    26.002000   26.067000   23.836000 C     1 ACE    -0.3662 ****
  3 H2     25.409000   26.542000   24.615000 H     1 ACE     0.1123 ****
  4 H3     25.570000   26.278000   22.859000 H     1 ACE     0.1123 ****
  5 C      27.413000   26.605000   23.886000 C     1 ACE     0.5972 ****
  6 O      28.353000   25.846000   24.080000 O     1 ACE    -0.5679 ****
  7 N      27.557000   27.915000   23.702000 N     2 SER    -0.4157 ****
  8 H      26.728000   28.480000   23.582000 H     2 SER     0.2719 ****
  9 CA     28.828000   28.645000   23.802000 C     2 SER    -0.0249 ****
 10 HA     29.391000   28.258000   24.653000 H     2 SER     0.0843 ****
 11 CB     29.667000   28.416000   22.537000 C     2 SER     0.2117 ****
 12 HB2    29.749000   27.346000   22.342000 H     2 SER     0.0352 ****
 13 HB3    29.178000   28.894000   21.686000 H     2 SER     0.0352 ****
 14 OG     30.968000   28.949000   22.702000 O     2 SER    -0.6546 ****
 15 HG     31.436000   28.890000   21.863000 H     2 SER     0.4275 ****
 16 C      28.572000   30.143000   24.041000 C     2 SER     0.5973 ****
 17 O      27.423000   30.587000   24.006000 O     2 SER    -0.5679 ****
 18 N      29.628000   30.919000   24.286000 N     3 ALA    -0.4157 ****
 19 H      30.536000   30.490000   24.159000 H     3 ALA     0.2719 ****
 20 CA     29.584000   32.375000   24.445000 C     3 ALA     0.0337 ****
 21 HA     28.636000   32.753000   24.060000 H     3 ALA     0.0823 ****
 22 CB     29.633000   32.673000   25.954000 C     3 ALA    -0.1825 ****
 23 HB1    30.593000   32.359000   26.368000 H     3 ALA     0.0603 ****
 24 HB2    29.488000   33.738000   26.135000 H     3 ALA     0.0603 ****
 25 HB3    28.833000   32.130000   26.460000 H     3 ALA     0.0603 ****
 26 C      30.702000   33.059000   23.621000 C     3 ALA     0.5973 ****
 27 O      31.122000   32.545000   22.586000 O     3 ALA    -0.5679 ****
 28 N      31.212000   34.205000   24.080000 N     4 GLY    -0.4157 ****
 29 H      30.853000   34.591000   24.942000 H     4 GLY     0.2719 ****
 30 CA     32.280000   34.959000   23.422000 C     4 GLY    -0.0252 ****
 31 HA2    33.162000   34.325000   23.326000 H     4 GLY     0.0698 ****
 32 HA3    31.955000   35.248000   22.422000 H     4 GLY     0.0698 ****
 33 C      32.663000   36.221000   24.200000 C     4 GLY     0.5973 ****
 34 O      32.092000   36.499000   25.253000 O     4 GLY    -0.5679 ****
 35 N      33.632000   36.981000   23.678000 N     5 NME    -0.4157 ****
 36 H      34.051000   36.685000   22.810000 H     5 NME     0.2719 ****
 37 CH3    34.117000   38.217000   24.291000 C     5 NME    -0.1490 ****
 38 HH31   33.295000   38.929000   24.385000 H     5 NME     0.0976 ****
 39 HH32   34.508000   38.005000   25.288000 H     5 NME     0.0976 ****
 40 HH33   34.907000   38.658000   23.681000 H     5 NME     0.0976 ****
@<TRIPOS>BOND
    1     5     6 1
    2     5     7 1
    3     2     3 1
    4     2     4 1
    5     2     5 1
    6     1     2 1
    7    16    17 1
    8    16    18 1
    9    14    15 1
   10    11    12 1
   11    11    13 1
   12    11    14 1
   13     9    10 1
   14     9    11 1
   15     9    16 1
   16     7     8 1
   17     7     9 1
   18    26    27 1
   19    26    28 1
   20    22    23 1
   21    22    24 1
   22    22    25 1
   23    20    21 1
   24    20    22 1
   25    20    26 1
   26    18    19 1
   27    18    20 1
   28    33    34 1
   29    33    35 1
   30    30    31 1
   31    30    32 1
   32    30    33 1
   33    28    29 1
   34    28    30 1
   35    37    38 1
   36    37    39 1
   37    37    40 1
   38    35    36 1
   39    35    37 1
@<TRIPOS>SUBSTRUCTURE
      1  ACE              1 ****               0 ****  **** 
      2  SER              7 ****               0 ****  **** 
      3  ALA             18 ****               0 ****  **** 
      4  GLY             28 ****               0 ****  **** 
      5  NME             35 ****               0 ****  **** 
