@<TRIPOS>MOLECULE
default_name
   40    39     5     0     1 
SMALL
USER_CHARGES
@<TRIPOS>ATOM
  1 H1     27.513000   32.162000   21.835000 H     1 ACE     0.1123 ****
  2 CH3    28.051000   31.241000   21.616000 C     1 ACE    -0.3662 ****
  3 H2     29.054000   31.478000   21.265000 H     1 ACE     0.1123 ****
  4 H3     27.514000   30.673000   20.859000 H     1 ACE     0.1123 ****
  5 C      28.156000   30.422000   22.880000 C     1 ACE     0.5972 ****
  6 O      27.707000   30.857000   23.934000 O     1 ACE    -0.5679 ****
  7 N      28.760000   29.239000   22.774000 N     2 SER    -0.4157 ****
  8 H      29.139000   28.990000   21.875000 H     2 SER     0.2719 ****
  9 CA     29.122000   28.395000   23.923000 C     2 SER    -0.0249 ****
 10 HA     28.276000   28.335000   24.608000 H     2 SER     0.0843 ****
 11 CB     29.436000   26.974000   23.436000 C     2 SER     0.2117 ****
 12 HB2    28.528000   26.521000   23.038000 H     2 SER     0.0352 ****
 13 HB3    30.189000   27.013000   22.647000 H     2 SER     0.0352 ****
 14 OG     29.925000   26.186000   24.499000 O     2 SER    -0.6546 ****
 15 HG     30.814000   26.509000   24.703000 H     2 SER     0.4275 ****
 16 C      30.312000   29.015000   24.667000 C     2 SER     0.5973 ****
 17 O      31.460000   28.667000   24.397000 O     2 SER    -0.5679 ****
 18 N      30.026000   29.919000   25.610000 N     3 ALA    -0.4157 ****
 19 H      29.046000   29.993000   25.836000 H     3 ALA     0.2719 ****
 20 CA     30.776000   31.164000   25.823000 C     3 ALA     0.0337 ****
 21 HA     30.145000   31.792000   26.454000 H     3 ALA     0.0823 ****
 22 CB     32.052000   30.881000   26.629000 C     3 ALA    -0.1825 ****
 23 HB1    32.746000   30.287000   26.032000 H     3 ALA     0.0603 ****
 24 HB2    32.535000   31.821000   26.896000 H     3 ALA     0.0603 ****
 25 HB3    31.804000   30.335000   27.540000 H     3 ALA     0.0603 ****
 26 C      31.060000   31.981000   24.535000 C     3 ALA     0.5973 ****
 27 O      31.423000   31.467000   23.479000 O     3 ALA    -0.5679 ****
 28 N      30.837000   33.295000   24.613000 N     4 GLY    -0.4157 ****
 29 H      30.523000   33.693000   25.487000 H     4 GLY     0.2719 ****
 30 CA     31.013000   34.229000   23.500000 C     4 GLY    -0.0252 ****
 31 HA2    32.038000   34.165000   23.134000 H     4 GLY     0.0698 ****
 32 HA3    30.340000   33.952000   22.689000 H     4 GLY     0.0698 ****
 33 C      30.725000   35.677000   23.906000 C     4 GLY     0.5973 ****
 34 O      30.386000   35.945000   25.058000 O     4 GLY    -0.5679 ****
 35 N      30.861000   36.609000   22.956000 N     5 NME    -0.4157 ****
 36 H      31.145000   36.309000   22.036000 H     5 NME     0.2719 ****
 37 CH3    30.625000   38.035000   23.173000 C     5 NME    -0.1490 ****
 38 HH31   31.296000   38.406000   23.950000 H     5 NME     0.0976 ****
 39 HH32   30.798000   38.593000   22.251000 H     5 NME     0.0976 ****
 40 HH33   29.595000   38.192000   23.501000 H     5 NME     0.0976 ****
@<TRIPOS>BOND
    1     5     6 1
    2     5     7 1
    3     2     3 1
    4     2     4 1
    5     2     5 1
    6     1     2 1
    7    16    17 1
    8    16    18 1
    9    14    15 1
   10    11    12 1
   11    11    13 1
   12    11    14 1
   13     9    10 1
   14     9    11 1
   15     9    16 1
   16     7     8 1
   17     7     9 1
   18    26    27 1
   19    26    28 1
   20    22    23 1
   21    22    24 1
   22    22    25 1
   23    20    21 1
   24    20    22 1
   25    20    26 1
   26    18    19 1
   27    18    20 1
   28    33    34 1
   29    33    35 1
   30    30    31 1
   31    30    32 1
   32    30    33 1
   33    28    29 1
   34    28    30 1
   35    37    38 1
   36    37    39 1
   37    37    40 1
   38    35    36 1
   39    35    37 1
@<TRIPOS>SUBSTRUCTURE
      1  ACE              1 ****               0 ****  **** 
      2  SER              7 ****               0 ****  **** 
      3  ALA             18 ****               0 ****  **** 
      4  GLY             28 ****               0 ****  **** 
      5  NME             35 ****               0 ****  **** 
