@<TRIPOS>MOLECULE
default_name
   40    39     5     0     1 
SMALL
USER_CHARGES
@<TRIPOS>ATOM
  1 H1     26.125000   25.451000   23.796000 H     1 ACE     0.1123 ****
  2 CH3    26.163000   26.521000   23.594000 C     1 ACE    -0.3662 ****
  3 H2     25.477000   27.042000   24.260000 H     1 ACE     0.1123 ****
  4 H3     25.887000   26.708000   22.558000 H     1 ACE     0.1123 ****
  5 C      27.569000   27.016000   23.837000 C     1 ACE     0.5972 ****
  6 O      28.443000   26.239000   24.195000 O     1 ACE    -0.5679 ****
  7 N      27.789000   28.313000   23.632000 N     2 SER    -0.4157 ****
  8 H      27.013000   28.899000   23.356000 H     2 SER     0.2719 ****
  9 CA     29.064000   28.996000   23.886000 C     2 SER    -0.0249 ****
 10 HA     29.486000   28.616000   24.818000 H     2 SER     0.0843 ****
 11 CB     30.055000   28.688000   22.756000 C     2 SER     0.2117 ****
 12 HB2    30.179000   27.607000   22.674000 H     2 SER     0.0352 ****
 13 HB3    29.664000   29.071000   21.812000 H     2 SER     0.0352 ****
 14 OG     31.317000   29.274000   23.018000 O     2 SER    -0.6546 ****
 15 HG     31.970000   28.851000   22.450000 H     2 SER     0.4275 ****
 16 C      28.848000   30.508000   24.041000 C     2 SER     0.5973 ****
 17 O      27.810000   31.030000   23.635000 O     2 SER    -0.5679 ****
 18 N      29.823000   31.214000   24.618000 N     3 ALA    -0.4157 ****
 19 H      30.674000   30.720000   24.849000 H     3 ALA     0.2719 ****
 20 CA     29.771000   32.649000   24.896000 C     3 ALA     0.0337 ****
 21 HA     29.003000   33.111000   24.272000 H     3 ALA     0.0823 ****
 22 CB     29.357000   32.847000   26.362000 C     3 ALA    -0.1825 ****
 23 HB1    30.088000   32.382000   27.025000 H     3 ALA     0.0603 ****
 24 HB2    29.302000   33.913000   26.586000 H     3 ALA     0.0603 ****
 25 HB3    28.377000   32.398000   26.534000 H     3 ALA     0.0603 ****
 26 C      31.111000   33.318000   24.538000 C     3 ALA     0.5973 ****
 27 O      31.940000   33.603000   25.400000 O     3 ALA    -0.5679 ****
 28 N      31.339000   33.539000   23.240000 N     4 GLY    -0.4157 ****
 29 H      30.623000   33.279000   22.579000 H     4 GLY     0.2719 ****
 30 CA     32.544000   34.195000   22.722000 C     4 GLY    -0.0252 ****
 31 HA2    33.425000   33.808000   23.236000 H     4 GLY     0.0698 ****
 32 HA3    32.646000   33.974000   21.660000 H     4 GLY     0.0698 ****
 33 C      32.497000   35.716000   22.888000 C     4 GLY     0.5973 ****
 34 O      32.030000   36.412000   21.991000 O     4 GLY    -0.5679 ****
 35 N      32.982000   36.226000   24.026000 N     5 NME    -0.4157 ****
 36 H      33.295000   35.577000   24.733000 H     5 NME     0.2719 ****
 37 CH3    33.013000   37.654000   24.337000 C     5 NME    -0.1490 ****
 38 HH31   31.999000   38.057000   24.311000 H     5 NME     0.0976 ****
 39 HH32   33.439000   37.814000   25.328000 H     5 NME     0.0976 ****
 40 HH33   33.616000   38.180000   23.595000 H     5 NME     0.0976 ****
@<TRIPOS>BOND
    1     5     6 1
    2     5     7 1
    3     2     3 1
    4     2     4 1
    5     2     5 1
    6     1     2 1
    7    16    17 1
    8    16    18 1
    9    14    15 1
   10    11    12 1
   11    11    13 1
   12    11    14 1
   13     9    10 1
   14     9    11 1
   15     9    16 1
   16     7     8 1
   17     7     9 1
   18    26    27 1
   19    26    28 1
   20    22    23 1
   21    22    24 1
   22    22    25 1
   23    20    21 1
   24    20    22 1
   25    20    26 1
   26    18    19 1
   27    18    20 1
   28    33    34 1
   29    33    35 1
   30    30    31 1
   31    30    32 1
   32    30    33 1
   33    28    29 1
   34    28    30 1
   35    37    38 1
   36    37    39 1
   37    37    40 1
   38    35    36 1
   39    35    37 1
@<TRIPOS>SUBSTRUCTURE
      1  ACE              1 ****               0 ****  **** 
      2  SER              7 ****               0 ****  **** 
      3  ALA             18 ****               0 ****  **** 
      4  GLY             28 ****               0 ****  **** 
      5  NME             35 ****               0 ****  **** 
