@<TRIPOS>MOLECULE
default_name
   40    39     5     0     1 
SMALL
USER_CHARGES
@<TRIPOS>ATOM
  1 H1     26.844000   25.675000   22.535000 H     1 ACE     0.1123 ****
  2 CH3    26.658000   26.703000   22.845000 C     1 ACE    -0.3662 ****
  3 H2     26.139000   26.708000   23.801000 H     1 ACE     0.1123 ****
  4 H3     26.057000   27.209000   22.093000 H     1 ACE     0.1123 ****
  5 C      27.982000   27.416000   22.992000 C     1 ACE     0.5972 ****
  6 O      29.028000   26.827000   22.762000 O     1 ACE    -0.5679 ****
  7 N      27.933000   28.692000   23.369000 N     2 SER    -0.4157 ****
  8 H      27.032000   29.096000   23.584000 H     2 SER     0.2719 ****
  9 CA     29.107000   29.524000   23.667000 C     2 SER    -0.0249 ****
 10 HA     29.824000   28.925000   24.230000 H     2 SER     0.0843 ****
 11 CB     29.788000   29.962000   22.357000 C     2 SER     0.2117 ****
 12 HB2    29.992000   29.081000   21.746000 H     2 SER     0.0352 ****
 13 HB3    29.122000   30.626000   21.804000 H     2 SER     0.0352 ****
 14 OG     31.016000   30.626000   22.617000 O     2 SER    -0.6546 ****
 15 HG     31.469000   30.788000   21.780000 H     2 SER     0.4275 ****
 16 C      28.709000   30.726000   24.543000 C     2 SER     0.5973 ****
 17 O      27.543000   30.883000   24.901000 O     2 SER    -0.5679 ****
 18 N      29.682000   31.578000   24.867000 N     3 ALA    -0.4157 ****
 19 H      30.559000   31.408000   24.394000 H     3 ALA     0.2719 ****
 20 CA     29.557000   32.790000   25.684000 C     3 ALA     0.0337 ****
 21 HA     28.675000   33.351000   25.369000 H     3 ALA     0.0823 ****
 22 CB     29.390000   32.379000   27.155000 C     3 ALA    -0.1825 ****
 23 HB1    30.250000   31.796000   27.486000 H     3 ALA     0.0603 ****
 24 HB2    29.304000   33.273000   27.775000 H     3 ALA     0.0603 ****
 25 HB3    28.483000   31.785000   27.278000 H     3 ALA     0.0603 ****
 26 C      30.789000   33.708000   25.536000 C     3 ALA     0.5973 ****
 27 O      30.670000   34.925000   25.657000 O     3 ALA    -0.5679 ****
 28 N      31.963000   33.149000   25.215000 N     4 GLY    -0.4157 ****
 29 H      32.017000   32.146000   25.142000 H     4 GLY     0.2719 ****
 30 CA     33.136000   33.920000   24.798000 C     4 GLY    -0.0252 ****
 31 HA2    33.286000   34.764000   25.473000 H     4 GLY     0.0698 ****
 32 HA3    34.021000   33.286000   24.837000 H     4 GLY     0.0698 ****
 33 C      32.978000   34.438000   23.367000 C     4 GLY     0.5973 ****
 34 O      33.305000   33.727000   22.420000 O     4 GLY    -0.5679 ****
 35 N      32.466000   35.664000   23.215000 N     5 NME    -0.4157 ****
 36 H      32.143000   36.137000   24.048000 H     5 NME     0.2719 ****
 37 CH3    32.249000   36.311000   21.923000 C     5 NME    -0.1490 ****
 38 HH31   31.843000   37.313000   22.069000 H     5 NME     0.0976 ****
 39 HH32   33.195000   36.380000   21.382000 H     5 NME     0.0976 ****
 40 HH33   31.548000   35.722000   21.329000 H     5 NME     0.0976 ****
@<TRIPOS>BOND
    1     5     6 1
    2     5     7 1
    3     2     3 1
    4     2     4 1
    5     2     5 1
    6     1     2 1
    7    16    17 1
    8    16    18 1
    9    14    15 1
   10    11    12 1
   11    11    13 1
   12    11    14 1
   13     9    10 1
   14     9    11 1
   15     9    16 1
   16     7     8 1
   17     7     9 1
   18    26    27 1
   19    26    28 1
   20    22    23 1
   21    22    24 1
   22    22    25 1
   23    20    21 1
   24    20    22 1
   25    20    26 1
   26    18    19 1
   27    18    20 1
   28    33    34 1
   29    33    35 1
   30    30    31 1
   31    30    32 1
   32    30    33 1
   33    28    29 1
   34    28    30 1
   35    37    38 1
   36    37    39 1
   37    37    40 1
   38    35    36 1
   39    35    37 1
@<TRIPOS>SUBSTRUCTURE
      1  ACE              1 ****               0 ****  **** 
      2  SER              7 ****               0 ****  **** 
      3  ALA             18 ****               0 ****  **** 
      4  GLY             28 ****               0 ****  **** 
      5  NME             35 ****               0 ****  **** 
