@<TRIPOS>MOLECULE
default_name
   40    39     5     0     1 
SMALL
USER_CHARGES
@<TRIPOS>ATOM
  1 H1     26.131000   27.464000   21.598000 H     1 ACE     0.1123 ****
  2 CH3    26.347000   28.495000   21.876000 C     1 ACE    -0.3662 ****
  3 H2     25.572000   28.863000   22.546000 H     1 ACE     0.1123 ****
  4 H3     26.390000   29.113000   20.981000 H     1 ACE     0.1123 ****
  5 C      27.683000   28.542000   22.580000 C     1 ACE     0.5972 ****
  6 O      28.326000   27.516000   22.750000 O     1 ACE    -0.5679 ****
  7 N      28.099000   29.737000   22.991000 N     2 SER    -0.4157 ****
  8 H      27.512000   30.540000   22.822000 H     2 SER     0.2719 ****
  9 CA     29.365000   29.979000   23.694000 C     2 SER    -0.0249 ****
 10 HA     29.582000   29.134000   24.349000 H     2 SER     0.0843 ****
 11 CB     30.504000   30.103000   22.675000 C     2 SER     0.2117 ****
 12 HB2    30.643000   29.151000   22.161000 H     2 SER     0.0352 ****
 13 HB3    30.240000   30.865000   21.939000 H     2 SER     0.0352 ****
 14 OG     31.714000   30.482000   23.304000 O     2 SER    -0.6546 ****
 15 HG     32.149000   31.121000   22.707000 H     2 SER     0.4275 ****
 16 C      29.281000   31.253000   24.536000 C     2 SER     0.5973 ****
 17 O      28.716000   32.249000   24.089000 O     2 SER    -0.5679 ****
 18 N      29.874000   31.243000   25.736000 N     3 ALA    -0.4157 ****
 19 H      30.309000   30.389000   26.047000 H     3 ALA     0.2719 ****
 20 CA     30.075000   32.460000   26.530000 C     3 ALA     0.0337 ****
 21 HA     29.145000   33.032000   26.549000 H     3 ALA     0.0823 ****
 22 CB     30.422000   32.044000   27.965000 C     3 ALA    -0.1825 ****
 23 HB1    31.352000   31.475000   27.981000 H     3 ALA     0.0603 ****
 24 HB2    30.542000   32.937000   28.581000 H     3 ALA     0.0603 ****
 25 HB3    29.616000   31.438000   28.381000 H     3 ALA     0.0603 ****
 26 C      31.166000   33.372000   25.929000 C     3 ALA     0.5973 ****
 27 O      31.098000   34.593000   26.051000 O     3 ALA    -0.5679 ****
 28 N      32.137000   32.790000   25.216000 N     4 GLY    -0.4157 ****
 29 H      32.095000   31.786000   25.105000 H     4 GLY     0.2719 ****
 30 CA     33.016000   33.514000   24.301000 C     4 GLY    -0.0252 ****
 31 HA2    33.259000   34.500000   24.701000 H     4 GLY     0.0698 ****
 32 HA3    33.940000   32.955000   24.157000 H     4 GLY     0.0698 ****
 33 C      32.317000   33.666000   22.952000 C     4 GLY     0.5973 ****
 34 O      32.510000   32.827000   22.071000 O     4 GLY    -0.5679 ****
 35 N      31.458000   34.682000   22.829000 N     5 NME    -0.4157 ****
 36 H      31.302000   35.256000   23.648000 H     5 NME     0.2719 ****
 37 CH3    30.626000   34.920000   21.652000 C     5 NME    -0.1490 ****
 38 HH31   29.808000   34.196000   21.633000 H     5 NME     0.0976 ****
 39 HH32   30.210000   35.928000   21.686000 H     5 NME     0.0976 ****
 40 HH33   31.221000   34.807000   20.744000 H     5 NME     0.0976 ****
@<TRIPOS>BOND
    1     5     6 1
    2     5     7 1
    3     2     3 1
    4     2     4 1
    5     2     5 1
    6     1     2 1
    7    16    17 1
    8    16    18 1
    9    14    15 1
   10    11    12 1
   11    11    13 1
   12    11    14 1
   13     9    10 1
   14     9    11 1
   15     9    16 1
   16     7     8 1
   17     7     9 1
   18    26    27 1
   19    26    28 1
   20    22    23 1
   21    22    24 1
   22    22    25 1
   23    20    21 1
   24    20    22 1
   25    20    26 1
   26    18    19 1
   27    18    20 1
   28    33    34 1
   29    33    35 1
   30    30    31 1
   31    30    32 1
   32    30    33 1
   33    28    29 1
   34    28    30 1
   35    37    38 1
   36    37    39 1
   37    37    40 1
   38    35    36 1
   39    35    37 1
@<TRIPOS>SUBSTRUCTURE
      1  ACE              1 ****               0 ****  **** 
      2  SER              7 ****               0 ****  **** 
      3  ALA             18 ****               0 ****  **** 
      4  GLY             28 ****               0 ****  **** 
      5  NME             35 ****               0 ****  **** 
