@<TRIPOS>MOLECULE
default_name
   40    39     5     0     1 
SMALL
USER_CHARGES
@<TRIPOS>ATOM
  1 H1     25.920000   25.408000   22.842000 H     1 ACE     0.1123 ****
  2 CH3    26.010000   26.492000   22.796000 C     1 ACE    -0.3662 ****
  3 H2     25.226000   26.949000   23.398000 H     1 ACE     0.1123 ****
  4 H3     25.927000   26.823000   21.763000 H     1 ACE     0.1123 ****
  5 C      27.359000   26.894000   23.344000 C     1 ACE     0.5972 ****
  6 O      28.140000   26.042000   23.742000 O     1 ACE    -0.5679 ****
  7 N      27.630000   28.197000   23.362000 N     2 SER    -0.4157 ****
  8 H      26.927000   28.843000   23.034000 H     2 SER     0.2719 ****
  9 CA     28.873000   28.786000   23.874000 C     2 SER    -0.0249 ****
 10 HA     29.210000   28.216000   24.740000 H     2 SER     0.0843 ****
 11 CB     29.967000   28.714000   22.798000 C     2 SER     0.2117 ****
 12 HB2    30.170000   27.666000   22.570000 H     2 SER     0.0352 ****
 13 HB3    29.619000   29.208000   21.889000 H     2 SER     0.0352 ****
 14 OG     31.167000   29.330000   23.229000 O     2 SER    -0.6546 ****
 15 HG     31.099000   30.292000   23.075000 H     2 SER     0.4275 ****
 16 C      28.649000   30.239000   24.303000 C     2 SER     0.5973 ****
 17 O      27.760000   30.911000   23.780000 O     2 SER    -0.5679 ****
 18 N      29.477000   30.739000   25.224000 N     3 ALA    -0.4157 ****
 19 H      30.192000   30.123000   25.581000 H     3 ALA     0.2719 ****
 20 CA     29.694000   32.178000   25.376000 C     3 ALA     0.0337 ****
 21 HA     28.732000   32.694000   25.350000 H     3 ALA     0.0823 ****
 22 CB     30.326000   32.396000   26.761000 C     3 ALA    -0.1825 ****
 23 HB1    31.316000   31.938000   26.798000 H     3 ALA     0.0603 ****
 24 HB2    30.415000   33.462000   26.973000 H     3 ALA     0.0603 ****
 25 HB3    29.694000   31.947000   27.529000 H     3 ALA     0.0603 ****
 26 C      30.565000   32.738000   24.219000 C     3 ALA     0.5973 ****
 27 O      30.832000   32.049000   23.231000 O     3 ALA    -0.5679 ****
 28 N      31.087000   33.956000   24.373000 N     4 GLY    -0.4157 ****
 29 H      30.874000   34.481000   25.211000 H     4 GLY     0.2719 ****
 30 CA     31.967000   34.610000   23.403000 C     4 GLY    -0.0252 ****
 31 HA2    32.845000   33.987000   23.232000 H     4 GLY     0.0698 ****
 32 HA3    31.437000   34.727000   22.457000 H     4 GLY     0.0698 ****
 33 C      32.429000   35.989000   23.881000 C     4 GLY     0.5973 ****
 34 O      32.067000   36.421000   24.975000 O     4 GLY    -0.5679 ****
 35 N      33.230000   36.677000   23.059000 N     5 NME    -0.4157 ****
 36 H      33.482000   36.255000   22.179000 H     5 NME     0.2719 ****
 37 CH3    33.760000   38.006000   23.362000 C     5 NME    -0.1490 ****
 38 HH31   32.936000   38.706000   23.514000 H     5 NME     0.0976 ****
 39 HH32   34.355000   37.966000   24.277000 H     5 NME     0.0976 ****
 40 HH33   34.386000   38.360000   22.541000 H     5 NME     0.0976 ****
@<TRIPOS>BOND
    1     5     6 1
    2     5     7 1
    3     2     3 1
    4     2     4 1
    5     2     5 1
    6     1     2 1
    7    16    17 1
    8    16    18 1
    9    14    15 1
   10    11    12 1
   11    11    13 1
   12    11    14 1
   13     9    10 1
   14     9    11 1
   15     9    16 1
   16     7     8 1
   17     7     9 1
   18    26    27 1
   19    26    28 1
   20    22    23 1
   21    22    24 1
   22    22    25 1
   23    20    21 1
   24    20    22 1
   25    20    26 1
   26    18    19 1
   27    18    20 1
   28    33    34 1
   29    33    35 1
   30    30    31 1
   31    30    32 1
   32    30    33 1
   33    28    29 1
   34    28    30 1
   35    37    38 1
   36    37    39 1
   37    37    40 1
   38    35    36 1
   39    35    37 1
@<TRIPOS>SUBSTRUCTURE
      1  ACE              1 ****               0 ****  **** 
      2  SER              7 ****               0 ****  **** 
      3  ALA             18 ****               0 ****  **** 
      4  GLY             28 ****               0 ****  **** 
      5  NME             35 ****               0 ****  **** 
