@<TRIPOS>MOLECULE
default_name
   40    39     5     0     1 
SMALL
USER_CHARGES
@<TRIPOS>ATOM
  1 H1     26.605000   25.353000   23.777000 H     1 ACE     0.1123 ****
  2 CH3    26.447000   26.405000   24.012000 C     1 ACE    -0.3662 ****
  3 H2     26.321000   26.524000   25.086000 H     1 ACE     0.1123 ****
  4 H3     25.562000   26.766000   23.491000 H     1 ACE     0.1123 ****
  5 C      27.652000   27.194000   23.560000 C     1 ACE     0.5972 ****
  6 O      28.595000   26.629000   23.020000 O     1 ACE    -0.5679 ****
  7 N      27.622000   28.508000   23.772000 N     2 SER    -0.4157 ****
  8 H      26.825000   28.907000   24.248000 H     2 SER     0.2719 ****
  9 CA     28.730000   29.423000   23.470000 C     2 SER    -0.0249 ****
 10 HA     29.666000   28.940000   23.753000 H     2 SER     0.0843 ****
 11 CB     28.772000   29.712000   21.964000 C     2 SER     0.2117 ****
 12 HB2    28.686000   28.780000   21.404000 H     2 SER     0.0352 ****
 13 HB3    27.936000   30.360000   21.697000 H     2 SER     0.0352 ****
 14 OG     29.991000   30.341000   21.617000 O     2 SER    -0.6546 ****
 15 HG     30.631000   29.655000   21.397000 H     2 SER     0.4275 ****
 16 C      28.604000   30.724000   24.278000 C     2 SER     0.5973 ****
 17 O      27.557000   30.978000   24.873000 O     2 SER    -0.5679 ****
 18 N      29.655000   31.549000   24.273000 N     3 ALA    -0.4157 ****
 19 H      30.430000   31.281000   23.679000 H     3 ALA     0.2719 ****
 20 CA     29.884000   32.740000   25.101000 C     3 ALA     0.0337 ****
 21 HA     29.209000   33.541000   24.796000 H     3 ALA     0.0823 ****
 22 CB     29.664000   32.404000   26.591000 C     3 ALA    -0.1825 ****
 23 HB1    30.283000   31.553000   26.877000 H     3 ALA     0.0603 ****
 24 HB2    29.927000   33.259000   27.215000 H     3 ALA     0.0603 ****
 25 HB3    28.618000   32.167000   26.782000 H     3 ALA     0.0603 ****
 26 C      31.349000   33.202000   24.940000 C     3 ALA     0.5973 ****
 27 O      32.181000   32.480000   24.394000 O     3 ALA    -0.5679 ****
 28 N      31.664000   34.417000   25.404000 N     4 GLY    -0.4157 ****
 29 H      30.933000   34.958000   25.840000 H     4 GLY     0.2719 ****
 30 CA     33.017000   34.997000   25.391000 C     4 GLY    -0.0252 ****
 31 HA2    33.084000   35.756000   26.171000 H     4 GLY     0.0698 ****
 32 HA3    33.737000   34.213000   25.628000 H     4 GLY     0.0698 ****
 33 C      33.465000   35.644000   24.070000 C     4 GLY     0.5973 ****
 34 O      34.314000   36.529000   24.103000 O     4 GLY    -0.5679 ****
 35 N      32.877000   35.267000   22.927000 N     5 NME    -0.4157 ****
 36 H      32.217000   34.507000   22.967000 H     5 NME     0.2719 ****
 37 CH3    33.196000   35.829000   21.616000 C     5 NME    -0.1490 ****
 38 HH31   33.002000   36.904000   21.619000 H     5 NME     0.0976 ****
 39 HH32   34.253000   35.668000   21.395000 H     5 NME     0.0976 ****
 40 HH33   32.590000   35.354000   20.844000 H     5 NME     0.0976 ****
@<TRIPOS>BOND
    1     5     6 1
    2     5     7 1
    3     2     3 1
    4     2     4 1
    5     2     5 1
    6     1     2 1
    7    16    17 1
    8    16    18 1
    9    14    15 1
   10    11    12 1
   11    11    13 1
   12    11    14 1
   13     9    10 1
   14     9    11 1
   15     9    16 1
   16     7     8 1
   17     7     9 1
   18    26    27 1
   19    26    28 1
   20    22    23 1
   21    22    24 1
   22    22    25 1
   23    20    21 1
   24    20    22 1
   25    20    26 1
   26    18    19 1
   27    18    20 1
   28    33    34 1
   29    33    35 1
   30    30    31 1
   31    30    32 1
   32    30    33 1
   33    28    29 1
   34    28    30 1
   35    37    38 1
   36    37    39 1
   37    37    40 1
   38    35    36 1
   39    35    37 1
@<TRIPOS>SUBSTRUCTURE
      1  ACE              1 ****               0 ****  **** 
      2  SER              7 ****               0 ****  **** 
      3  ALA             18 ****               0 ****  **** 
      4  GLY             28 ****               0 ****  **** 
      5  NME             35 ****               0 ****  **** 
