@<TRIPOS>MOLECULE
default_name
   40    39     5     0     1 
SMALL
USER_CHARGES
@<TRIPOS>ATOM
  1 H1     26.091000   25.333000   24.480000 H     1 ACE     0.1123 ****
  2 CH3    26.032000   26.356000   24.110000 C     1 ACE    -0.3662 ****
  3 H2     25.338000   26.929000   24.722000 H     1 ACE     0.1123 ****
  4 H3     25.701000   26.350000   23.073000 H     1 ACE     0.1123 ****
  5 C      27.404000   26.978000   24.194000 C     1 ACE     0.5972 ****
  6 O      28.310000   26.386000   24.765000 O     1 ACE    -0.5679 ****
  7 N      27.572000   28.157000   23.600000 N     2 SER    -0.4157 ****
  8 H      26.770000   28.626000   23.203000 H     2 SER     0.2719 ****
  9 CA     28.844000   28.889000   23.586000 C     2 SER    -0.0249 ****
 10 HA     29.302000   28.783000   24.571000 H     2 SER     0.0843 ****
 11 CB     29.804000   28.248000   22.574000 C     2 SER     0.2117 ****
 12 HB2    29.979000   27.215000   22.880000 H     2 SER     0.0352 ****
 13 HB3    29.351000   28.249000   21.583000 H     2 SER     0.0352 ****
 14 OG     31.052000   28.914000   22.536000 O     2 SER    -0.6546 ****
 15 HG     31.743000   28.265000   22.368000 H     2 SER     0.4275 ****
 16 C      28.634000   30.396000   23.383000 C     2 SER     0.5973 ****
 17 O      27.512000   30.866000   23.204000 O     2 SER    -0.5679 ****
 18 N      29.708000   31.158000   23.564000 N     3 ALA    -0.4157 ****
 19 H      30.592000   30.672000   23.470000 H     3 ALA     0.2719 ****
 20 CA     29.738000   32.293000   24.475000 C     3 ALA     0.0337 ****
 21 HA     28.974000   33.025000   24.208000 H     3 ALA     0.0823 ****
 22 CB     29.472000   31.743000   25.891000 C     3 ALA    -0.1825 ****
 23 HB1    30.167000   30.926000   26.106000 H     3 ALA     0.0603 ****
 24 HB2    29.611000   32.527000   26.635000 H     3 ALA     0.0603 ****
 25 HB3    28.451000   31.362000   25.962000 H     3 ALA     0.0603 ****
 26 C      31.139000   32.931000   24.423000 C     3 ALA     0.5973 ****
 27 O      32.131000   32.264000   24.715000 O     3 ALA    -0.5679 ****
 28 N      31.241000   34.202000   24.026000 N     4 GLY    -0.4157 ****
 29 H      30.407000   34.723000   23.792000 H     4 GLY     0.2719 ****
 30 CA     32.525000   34.899000   23.905000 C     4 GLY    -0.0252 ****
 31 HA2    33.146000   34.663000   24.770000 H     4 GLY     0.0698 ****
 32 HA3    33.040000   34.545000   23.012000 H     4 GLY     0.0698 ****
 33 C      32.383000   36.420000   23.811000 C     4 GLY     0.5973 ****
 34 O      31.272000   36.940000   23.726000 O     4 GLY    -0.5679 ****
 35 N      33.521000   37.124000   23.833000 N     5 NME    -0.4157 ****
 36 H      34.388000   36.614000   23.904000 H     5 NME     0.2719 ****
 37 CH3    33.591000   38.582000   23.761000 C     5 NME    -0.1490 ****
 38 HH31   32.787000   39.025000   24.352000 H     5 NME     0.0976 ****
 39 HH32   34.549000   38.932000   24.148000 H     5 NME     0.0976 ****
 40 HH33   33.482000   38.908000   22.725000 H     5 NME     0.0976 ****
@<TRIPOS>BOND
    1     5     6 1
    2     5     7 1
    3     2     3 1
    4     2     4 1
    5     2     5 1
    6     1     2 1
    7    16    17 1
    8    16    18 1
    9    14    15 1
   10    11    12 1
   11    11    13 1
   12    11    14 1
   13     9    10 1
   14     9    11 1
   15     9    16 1
   16     7     8 1
   17     7     9 1
   18    26    27 1
   19    26    28 1
   20    22    23 1
   21    22    24 1
   22    22    25 1
   23    20    21 1
   24    20    22 1
   25    20    26 1
   26    18    19 1
   27    18    20 1
   28    33    34 1
   29    33    35 1
   30    30    31 1
   31    30    32 1
   32    30    33 1
   33    28    29 1
   34    28    30 1
   35    37    38 1
   36    37    39 1
   37    37    40 1
   38    35    36 1
   39    35    37 1
@<TRIPOS>SUBSTRUCTURE
      1  ACE              1 ****               0 ****  **** 
      2  SER              7 ****               0 ****  **** 
      3  ALA             18 ****               0 ****  **** 
      4  GLY             28 ****               0 ****  **** 
      5  NME             35 ****               0 ****  **** 
