@<TRIPOS>MOLECULE
default_name
   40    39     5     0     1 
SMALL
USER_CHARGES
@<TRIPOS>ATOM
  1 H1     25.904000   27.973000   21.107000 H     1 ACE     0.1123 ****
  2 CH3    26.108000   28.923000   21.598000 C     1 ACE    -0.3662 ****
  3 H2     25.347000   29.116000   22.352000 H     1 ACE     0.1123 ****
  4 H3     26.111000   29.723000   20.860000 H     1 ACE     0.1123 ****
  5 C      27.462000   28.850000   22.263000 C     1 ACE     0.5972 ****
  6 O      28.132000   27.829000   22.185000 O     1 ACE    -0.5679 ****
  7 N      27.867000   29.938000   22.914000 N     2 SER    -0.4157 ****
  8 H      27.250000   30.737000   22.954000 H     2 SER     0.2719 ****
  9 CA     29.128000   30.047000   23.657000 C     2 SER    -0.0249 ****
 10 HA     29.325000   29.103000   24.167000 H     2 SER     0.0843 ****
 11 CB     30.286000   30.320000   22.686000 C     2 SER     0.2117 ****
 12 HB2    30.358000   29.506000   21.963000 H     2 SER     0.0352 ****
 13 HB3    30.088000   31.250000   22.149000 H     2 SER     0.0352 ****
 14 OG     31.516000   30.440000   23.377000 O     2 SER    -0.6546 ****
 15 HG     32.076000   31.060000   22.870000 H     2 SER     0.4275 ****
 16 C      29.045000   31.162000   24.706000 C     2 SER     0.5973 ****
 17 O      28.236000   32.079000   24.575000 O     2 SER    -0.5679 ****
 18 N      29.913000   31.106000   25.719000 N     3 ALA    -0.4157 ****
 19 H      30.559000   30.332000   25.717000 H     3 ALA     0.2719 ****
 20 CA     30.175000   32.215000   26.637000 C     3 ALA     0.0337 ****
 21 HA     29.229000   32.700000   26.888000 H     3 ALA     0.0823 ****
 22 CB     30.794000   31.666000   27.929000 C     3 ALA    -0.1825 ****
 23 HB1    31.730000   31.149000   27.718000 H     3 ALA     0.0603 ****
 24 HB2    30.988000   32.490000   28.618000 H     3 ALA     0.0603 ****
 25 HB3    30.099000   30.971000   28.402000 H     3 ALA     0.0603 ****
 26 C      31.060000   33.271000   25.947000 C     3 ALA     0.5973 ****
 27 O      30.667000   34.425000   25.795000 O     3 ALA    -0.5679 ****
 28 N      32.260000   32.873000   25.507000 N     4 GLY    -0.4157 ****
 29 H      32.512000   31.906000   25.636000 H     4 GLY     0.2719 ****
 30 CA     33.064000   33.665000   24.574000 C     4 GLY    -0.0252 ****
 31 HA2    33.107000   34.704000   24.904000 H     4 GLY     0.0698 ****
 32 HA3    34.079000   33.269000   24.538000 H     4 GLY     0.0698 ****
 33 C      32.466000   33.600000   23.167000 C     4 GLY     0.5973 ****
 34 O      32.754000   32.661000   22.423000 O     4 GLY    -0.5679 ****
 35 N      31.607000   34.564000   22.822000 N     5 NME    -0.4157 ****
 36 H      31.352000   35.233000   23.536000 H     5 NME     0.2719 ****
 37 CH3    30.909000   34.630000   21.540000 C     5 NME    -0.1490 ****
 38 HH31   30.471000   35.620000   21.404000 H     5 NME     0.0976 ****
 39 HH32   31.607000   34.432000   20.723000 H     5 NME     0.0976 ****
 40 HH33   30.114000   33.882000   21.516000 H     5 NME     0.0976 ****
@<TRIPOS>BOND
    1     5     6 1
    2     5     7 1
    3     2     3 1
    4     2     4 1
    5     2     5 1
    6     1     2 1
    7    16    17 1
    8    16    18 1
    9    14    15 1
   10    11    12 1
   11    11    13 1
   12    11    14 1
   13     9    10 1
   14     9    11 1
   15     9    16 1
   16     7     8 1
   17     7     9 1
   18    26    27 1
   19    26    28 1
   20    22    23 1
   21    22    24 1
   22    22    25 1
   23    20    21 1
   24    20    22 1
   25    20    26 1
   26    18    19 1
   27    18    20 1
   28    33    34 1
   29    33    35 1
   30    30    31 1
   31    30    32 1
   32    30    33 1
   33    28    29 1
   34    28    30 1
   35    37    38 1
   36    37    39 1
   37    37    40 1
   38    35    36 1
   39    35    37 1
@<TRIPOS>SUBSTRUCTURE
      1  ACE              1 ****               0 ****  **** 
      2  SER              7 ****               0 ****  **** 
      3  ALA             18 ****               0 ****  **** 
      4  GLY             28 ****               0 ****  **** 
      5  NME             35 ****               0 ****  **** 
