@<TRIPOS>MOLECULE
default_name
   40    39     5     0     1 
SMALL
USER_CHARGES
@<TRIPOS>ATOM
  1 H1     26.200000   26.005000   22.156000 H     1 ACE     0.1123 ****
  2 CH3    26.495000   27.052000   22.111000 C     1 ACE    -0.3662 ****
  3 H2     25.643000   27.682000   22.358000 H     1 ACE     0.1123 ****
  4 H3     26.855000   27.288000   21.112000 H     1 ACE     0.1123 ****
  5 C      27.601000   27.292000   23.112000 C     1 ACE     0.5972 ****
  6 O      28.018000   26.372000   23.802000 O     1 ACE    -0.5679 ****
  7 N      28.081000   28.532000   23.185000 N     2 SER    -0.4157 ****
  8 H      27.664000   29.245000   22.604000 H     2 SER     0.2719 ****
  9 CA     29.094000   28.985000   24.147000 C     2 SER    -0.0249 ****
 10 HA     28.883000   28.535000   25.118000 H     2 SER     0.0843 ****
 11 CB     30.486000   28.516000   23.702000 C     2 SER     0.2117 ****
 12 HB2    30.467000   27.439000   23.531000 H     2 SER     0.0352 ****
 13 HB3    30.759000   29.017000   22.771000 H     2 SER     0.0352 ****
 14 OG     31.451000   28.802000   24.697000 O     2 SER    -0.6546 ****
 15 HG     32.299000   28.446000   24.412000 H     2 SER     0.4275 ****
 16 C      29.042000   30.513000   24.309000 C     2 SER     0.5973 ****
 17 O      28.346000   31.197000   23.555000 O     2 SER    -0.5679 ****
 18 N      29.764000   31.062000   25.287000 N     3 ALA    -0.4157 ****
 19 H      30.400000   30.455000   25.786000 H     3 ALA     0.2719 ****
 20 CA     29.871000   32.502000   25.500000 C     3 ALA     0.0337 ****
 21 HA     28.864000   32.923000   25.530000 H     3 ALA     0.0823 ****
 22 CB     30.528000   32.750000   26.864000 C     3 ALA    -0.1825 ****
 23 HB1    31.534000   32.328000   26.876000 H     3 ALA     0.0603 ****
 24 HB2    30.592000   33.823000   27.051000 H     3 ALA     0.0603 ****
 25 HB3    29.933000   32.288000   27.653000 H     3 ALA     0.0603 ****
 26 C      30.647000   33.182000   24.354000 C     3 ALA     0.5973 ****
 27 O      31.828000   32.908000   24.141000 O     3 ALA    -0.5679 ****
 28 N      29.989000   34.087000   23.623000 N     4 GLY    -0.4157 ****
 29 H      29.013000   34.242000   23.821000 H     4 GLY     0.2719 ****
 30 CA     30.603000   34.871000   22.548000 C     4 GLY    -0.0252 ****
 31 HA2    31.224000   34.224000   21.929000 H     4 GLY     0.0698 ****
 32 HA3    29.820000   35.295000   21.919000 H     4 GLY     0.0698 ****
 33 C      31.457000   36.023000   23.084000 C     4 GLY     0.5973 ****
 34 O      30.945000   37.119000   23.288000 O     4 GLY    -0.5679 ****
 35 N      32.753000   35.775000   23.306000 N     5 NME    -0.4157 ****
 36 H      33.076000   34.827000   23.171000 H     5 NME     0.2719 ****
 37 CH3    33.704000   36.763000   23.811000 C     5 NME    -0.1490 ****
 38 HH31   33.368000   37.134000   24.781000 H     5 NME     0.0976 ****
 39 HH32   34.692000   36.314000   23.920000 H     5 NME     0.0976 ****
 40 HH33   33.763000   37.605000   23.118000 H     5 NME     0.0976 ****
@<TRIPOS>BOND
    1     5     6 1
    2     5     7 1
    3     2     3 1
    4     2     4 1
    5     2     5 1
    6     1     2 1
    7    16    17 1
    8    16    18 1
    9    14    15 1
   10    11    12 1
   11    11    13 1
   12    11    14 1
   13     9    10 1
   14     9    11 1
   15     9    16 1
   16     7     8 1
   17     7     9 1
   18    26    27 1
   19    26    28 1
   20    22    23 1
   21    22    24 1
   22    22    25 1
   23    20    21 1
   24    20    22 1
   25    20    26 1
   26    18    19 1
   27    18    20 1
   28    33    34 1
   29    33    35 1
   30    30    31 1
   31    30    32 1
   32    30    33 1
   33    28    29 1
   34    28    30 1
   35    37    38 1
   36    37    39 1
   37    37    40 1
   38    35    36 1
   39    35    37 1
@<TRIPOS>SUBSTRUCTURE
      1  ACE              1 ****               0 ****  **** 
      2  SER              7 ****               0 ****  **** 
      3  ALA             18 ****               0 ****  **** 
      4  GLY             28 ****               0 ****  **** 
      5  NME             35 ****               0 ****  **** 
