@<TRIPOS>MOLECULE
default_name
   40    39     5     0     1 
SMALL
USER_CHARGES
@<TRIPOS>ATOM
  1 H1     25.855000   27.826000   21.467000 H     1 ACE     0.1123 ****
  2 CH3    26.319000   28.799000   21.628000 C     1 ACE    -0.3662 ****
  3 H2     25.568000   29.508000   21.971000 H     1 ACE     0.1123 ****
  4 H3     26.763000   29.148000   20.698000 H     1 ACE     0.1123 ****
  5 C      27.395000   28.661000   22.678000 C     1 ACE     0.5972 ****
  6 O      27.620000   27.575000   23.194000 O     1 ACE    -0.5679 ****
  7 N      28.070000   29.764000   22.993000 N     2 SER    -0.4157 ****
  8 H      27.833000   30.628000   22.528000 H     2 SER     0.2719 ****
  9 CA     29.126000   29.823000   24.011000 C     2 SER    -0.0249 ****
 10 HA     28.844000   29.195000   24.857000 H     2 SER     0.0843 ****
 11 CB     30.437000   29.283000   23.426000 C     2 SER     0.2117 ****
 12 HB2    30.330000   28.214000   23.235000 H     2 SER     0.0352 ****
 13 HB3    30.651000   29.790000   22.483000 H     2 SER     0.0352 ****
 14 OG     31.514000   29.500000   24.319000 O     2 SER    -0.6546 ****
 15 HG     32.238000   28.915000   24.067000 H     2 SER     0.4275 ****
 16 C      29.335000   31.254000   24.507000 C     2 SER     0.5973 ****
 17 O      29.246000   32.194000   23.719000 O     2 SER    -0.5679 ****
 18 N      29.582000   31.425000   25.810000 N     3 ALA    -0.4157 ****
 19 H      29.498000   30.590000   26.366000 H     3 ALA     0.2719 ****
 20 CA     30.391000   32.479000   26.450000 C     3 ALA     0.0337 ****
 21 HA     29.695000   33.247000   26.790000 H     3 ALA     0.0823 ****
 22 CB     31.026000   31.855000   27.700000 C     3 ALA    -0.1825 ****
 23 HB1    31.731000   31.073000   27.410000 H     3 ALA     0.0603 ****
 24 HB2    31.561000   32.623000   28.260000 H     3 ALA     0.0603 ****
 25 HB3    30.254000   31.430000   28.343000 H     3 ALA     0.0603 ****
 26 C      31.469000   33.239000   25.627000 C     3 ALA     0.5973 ****
 27 O      31.850000   34.334000   26.027000 O     3 ALA    -0.5679 ****
 28 N      31.931000   32.728000   24.479000 N     4 GLY    -0.4157 ****
 29 H      31.638000   31.795000   24.228000 H     4 GLY     0.2719 ****
 30 CA     32.907000   33.391000   23.601000 C     4 GLY    -0.0252 ****
 31 HA2    33.680000   33.854000   24.216000 H     4 GLY     0.0698 ****
 32 HA3    33.383000   32.638000   22.973000 H     4 GLY     0.0698 ****
 33 C      32.342000   34.479000   22.675000 C     4 GLY     0.5973 ****
 34 O      33.083000   34.998000   21.845000 O     4 GLY    -0.5679 ****
 35 N      31.047000   34.805000   22.778000 N     5 NME    -0.4157 ****
 36 H      30.503000   34.324000   23.478000 H     5 NME     0.2719 ****
 37 CH3    30.382000   35.815000   21.959000 C     5 NME    -0.1490 ****
 38 HH31   30.534000   35.591000   20.902000 H     5 NME     0.0976 ****
 39 HH32   29.313000   35.828000   22.176000 H     5 NME     0.0976 ****
 40 HH33   30.807000   36.798000   22.173000 H     5 NME     0.0976 ****
@<TRIPOS>BOND
    1     5     6 1
    2     5     7 1
    3     2     3 1
    4     2     4 1
    5     2     5 1
    6     1     2 1
    7    16    17 1
    8    16    18 1
    9    14    15 1
   10    11    12 1
   11    11    13 1
   12    11    14 1
   13     9    10 1
   14     9    11 1
   15     9    16 1
   16     7     8 1
   17     7     9 1
   18    26    27 1
   19    26    28 1
   20    22    23 1
   21    22    24 1
   22    22    25 1
   23    20    21 1
   24    20    22 1
   25    20    26 1
   26    18    19 1
   27    18    20 1
   28    33    34 1
   29    33    35 1
   30    30    31 1
   31    30    32 1
   32    30    33 1
   33    28    29 1
   34    28    30 1
   35    37    38 1
   36    37    39 1
   37    37    40 1
   38    35    36 1
   39    35    37 1
@<TRIPOS>SUBSTRUCTURE
      1  ACE              1 ****               0 ****  **** 
      2  SER              7 ****               0 ****  **** 
      3  ALA             18 ****               0 ****  **** 
      4  GLY             28 ****               0 ****  **** 
      5  NME             35 ****               0 ****  **** 
