@<TRIPOS>MOLECULE
default_name
   40    39     5     0     1 
SMALL
USER_CHARGES
@<TRIPOS>ATOM
  1 H1     25.797000   25.233000   23.786000 H     1 ACE     0.1123 ****
  2 CH3    25.887000   26.296000   23.567000 C     1 ACE    -0.3662 ****
  3 H2     25.238000   26.862000   24.233000 H     1 ACE     0.1123 ****
  4 H3     25.611000   26.481000   22.532000 H     1 ACE     0.1123 ****
  5 C      27.320000   26.721000   23.787000 C     1 ACE     0.5972 ****
  6 O      28.156000   25.904000   24.148000 O     1 ACE    -0.5679 ****
  7 N      27.603000   28.001000   23.560000 N     2 SER    -0.4157 ****
  8 H      26.854000   28.621000   23.285000 H     2 SER     0.2719 ****
  9 CA     28.912000   28.628000   23.790000 C     2 SER    -0.0249 ****
 10 HA     29.327000   28.245000   24.722000 H     2 SER     0.0843 ****
 11 CB     29.874000   28.257000   22.654000 C     2 SER     0.2117 ****
 12 HB2    29.930000   27.170000   22.571000 H     2 SER     0.0352 ****
 13 HB3    29.503000   28.665000   21.713000 H     2 SER     0.0352 ****
 14 OG     31.168000   28.763000   22.915000 O     2 SER    -0.6546 ****
 15 HG     31.785000   28.376000   22.288000 H     2 SER     0.4275 ****
 16 C      28.763000   30.151000   23.922000 C     2 SER     0.5973 ****
 17 O      27.729000   30.705000   23.547000 O     2 SER    -0.5679 ****
 18 N      29.777000   30.831000   24.463000 N     3 ALA    -0.4157 ****
 19 H      30.638000   30.329000   24.639000 H     3 ALA     0.2719 ****
 20 CA     29.804000   32.280000   24.662000 C     3 ALA     0.0337 ****
 21 HA     29.195000   32.753000   23.889000 H     3 ALA     0.0823 ****
 22 CB     29.186000   32.606000   26.029000 C     3 ALA    -0.1825 ****
 23 HB1    29.775000   32.144000   26.823000 H     3 ALA     0.0603 ****
 24 HB2    29.165000   33.685000   26.180000 H     3 ALA     0.0603 ****
 25 HB3    28.164000   32.226000   26.072000 H     3 ALA     0.0603 ****
 26 C      31.234000   32.841000   24.535000 C     3 ALA     0.5973 ****
 27 O      32.214000   32.120000   24.716000 O     3 ALA    -0.5679 ****
 28 N      31.356000   34.138000   24.248000 N     4 GLY    -0.4157 ****
 29 H      30.523000   34.697000   24.119000 H     4 GLY     0.2719 ****
 30 CA     32.637000   34.833000   24.110000 C     4 GLY    -0.0252 ****
 31 HA2    33.204000   34.729000   25.036000 H     4 GLY     0.0698 ****
 32 HA3    33.210000   34.375000   23.304000 H     4 GLY     0.0698 ****
 33 C      32.463000   36.323000   23.806000 C     4 GLY     0.5973 ****
 34 O      31.338000   36.809000   23.702000 O     4 GLY    -0.5679 ****
 35 N      33.580000   37.045000   23.663000 N     5 NME    -0.4157 ****
 36 H      34.465000   36.573000   23.764000 H     5 NME     0.2719 ****
 37 CH3    33.594000   38.477000   23.372000 C     5 NME    -0.1490 ****
 38 HH31   33.073000   39.020000   24.164000 H     5 NME     0.0976 ****
 39 HH32   34.620000   38.841000   23.301000 H     5 NME     0.0976 ****
 40 HH33   33.079000   38.666000   22.427000 H     5 NME     0.0976 ****
@<TRIPOS>BOND
    1     5     6 1
    2     5     7 1
    3     2     3 1
    4     2     4 1
    5     2     5 1
    6     1     2 1
    7    16    17 1
    8    16    18 1
    9    14    15 1
   10    11    12 1
   11    11    13 1
   12    11    14 1
   13     9    10 1
   14     9    11 1
   15     9    16 1
   16     7     8 1
   17     7     9 1
   18    26    27 1
   19    26    28 1
   20    22    23 1
   21    22    24 1
   22    22    25 1
   23    20    21 1
   24    20    22 1
   25    20    26 1
   26    18    19 1
   27    18    20 1
   28    33    34 1
   29    33    35 1
   30    30    31 1
   31    30    32 1
   32    30    33 1
   33    28    29 1
   34    28    30 1
   35    37    38 1
   36    37    39 1
   37    37    40 1
   38    35    36 1
   39    35    37 1
@<TRIPOS>SUBSTRUCTURE
      1  ACE              1 ****               0 ****  **** 
      2  SER              7 ****               0 ****  **** 
      3  ALA             18 ****               0 ****  **** 
      4  GLY             28 ****               0 ****  **** 
      5  NME             35 ****               0 ****  **** 
