@<TRIPOS>MOLECULE
default_name
   40    39     5     0     1 
SMALL
USER_CHARGES
@<TRIPOS>ATOM
  1 H1     27.597000   31.952000   20.869000 H     1 ACE     0.1123 ****
  2 CH3    27.981000   30.935000   20.939000 C     1 ACE    -0.3662 ****
  3 H2     28.881000   30.846000   20.332000 H     1 ACE     0.1123 ****
  4 H3     27.224000   30.236000   20.587000 H     1 ACE     0.1123 ****
  5 C      28.313000   30.634000   22.381000 C     1 ACE     0.5972 ****
  6 O      28.133000   31.481000   23.246000 O     1 ACE    -0.5679 ****
  7 N      28.819000   29.429000   22.644000 N     2 SER    -0.4157 ****
  8 H      28.963000   28.798000   21.872000 H     2 SER     0.2719 ****
  9 CA     29.219000   28.991000   23.990000 C     2 SER    -0.0249 ****
 10 HA     28.354000   29.054000   24.651000 H     2 SER     0.0843 ****
 11 CB     29.666000   27.526000   23.946000 C     2 SER     0.2117 ****
 12 HB2    28.820000   26.901000   23.656000 H     2 SER     0.0352 ****
 13 HB3    30.465000   27.403000   23.213000 H     2 SER     0.0352 ****
 14 OG     30.131000   27.114000   25.214000 O     2 SER    -0.6546 ****
 15 HG     31.042000   27.416000   25.314000 H     2 SER     0.4275 ****
 16 C      30.333000   29.879000   24.558000 C     2 SER     0.5973 ****
 17 O      31.481000   29.769000   24.136000 O     2 SER    -0.5679 ****
 18 N      29.983000   30.768000   25.495000 N     3 ALA    -0.4157 ****
 19 H      29.002000   30.819000   25.723000 H     3 ALA     0.2719 ****
 20 CA     30.860000   31.770000   26.123000 C     3 ALA     0.0337 ****
 21 HA     30.222000   32.349000   26.792000 H     3 ALA     0.0823 ****
 22 CB     31.894000   31.072000   27.021000 C     3 ALA    -0.1825 ****
 23 HB1    32.612000   30.522000   26.412000 H     3 ALA     0.0603 ****
 24 HB2    32.433000   31.818000   27.606000 H     3 ALA     0.0603 ****
 25 HB3    31.394000   30.383000   27.703000 H     3 ALA     0.0603 ****
 26 C      31.478000   32.825000   25.169000 C     3 ALA     0.5973 ****
 27 O      32.210000   33.701000   25.622000 O     3 ALA    -0.5679 ****
 28 N      31.148000   32.796000   23.873000 N     4 GLY    -0.4157 ****
 29 H      30.532000   32.056000   23.576000 H     4 GLY     0.2719 ****
 30 CA     31.685000   33.687000   22.833000 C     4 GLY    -0.0252 ****
 31 HA2    32.739000   33.873000   23.041000 H     4 GLY     0.0698 ****
 32 HA3    31.617000   33.183000   21.869000 H     4 GLY     0.0698 ****
 33 C      30.994000   35.052000   22.700000 C     4 GLY     0.5973 ****
 34 O      31.036000   35.639000   21.622000 O     4 GLY    -0.5679 ****
 35 N      30.319000   35.539000   23.749000 N     5 NME    -0.4157 ****
 36 H      30.359000   35.014000   24.608000 H     5 NME     0.2719 ****
 37 CH3    29.590000   36.805000   23.744000 C     5 NME    -0.1490 ****
 38 HH31   29.154000   36.993000   24.726000 H     5 NME     0.0976 ****
 39 HH32   30.272000   37.619000   23.491000 H     5 NME     0.0976 ****
 40 HH33   28.797000   36.770000   22.996000 H     5 NME     0.0976 ****
@<TRIPOS>BOND
    1     5     6 1
    2     5     7 1
    3     2     3 1
    4     2     4 1
    5     2     5 1
    6     1     2 1
    7    16    17 1
    8    16    18 1
    9    14    15 1
   10    11    12 1
   11    11    13 1
   12    11    14 1
   13     9    10 1
   14     9    11 1
   15     9    16 1
   16     7     8 1
   17     7     9 1
   18    26    27 1
   19    26    28 1
   20    22    23 1
   21    22    24 1
   22    22    25 1
   23    20    21 1
   24    20    22 1
   25    20    26 1
   26    18    19 1
   27    18    20 1
   28    33    34 1
   29    33    35 1
   30    30    31 1
   31    30    32 1
   32    30    33 1
   33    28    29 1
   34    28    30 1
   35    37    38 1
   36    37    39 1
   37    37    40 1
   38    35    36 1
   39    35    37 1
@<TRIPOS>SUBSTRUCTURE
      1  ACE              1 ****               0 ****  **** 
      2  SER              7 ****               0 ****  **** 
      3  ALA             18 ****               0 ****  **** 
      4  GLY             28 ****               0 ****  **** 
      5  NME             35 ****               0 ****  **** 
