@<TRIPOS>MOLECULE
default_name
   40    39     5     0     1 
SMALL
USER_CHARGES
@<TRIPOS>ATOM
  1 H1     27.384000   25.291000   22.894000 H     1 ACE     0.1123 ****
  2 CH3    27.142000   26.223000   23.404000 C     1 ACE    -0.3662 ****
  3 H2     27.069000   26.044000   24.475000 H     1 ACE     0.1123 ****
  4 H3     26.199000   26.612000   23.026000 H     1 ACE     0.1123 ****
  5 C      28.241000   27.225000   23.139000 C     1 ACE     0.5972 ****
  6 O      29.198000   26.921000   22.439000 O     1 ACE    -0.5679 ****
  7 N      28.100000   28.427000   23.691000 N     2 SER    -0.4157 ****
  8 H      27.292000   28.604000   24.272000 H     2 SER     0.2719 ****
  9 CA     29.092000   29.506000   23.603000 C     2 SER    -0.0249 ****
 10 HA     30.088000   29.077000   23.715000 H     2 SER     0.0843 ****
 11 CB     29.014000   30.178000   22.222000 C     2 SER     0.2117 ****
 12 HB2    29.223000   29.433000   21.453000 H     2 SER     0.0352 ****
 13 HB3    28.008000   30.570000   22.065000 H     2 SER     0.0352 ****
 14 OG     29.952000   31.236000   22.108000 O     2 SER    -0.6546 ****
 15 HG     30.215000   31.312000   21.182000 H     2 SER     0.4275 ****
 16 C      28.883000   30.534000   24.722000 C     2 SER     0.5973 ****
 17 O      27.806000   30.606000   25.310000 O     2 SER    -0.5679 ****
 18 N      29.905000   31.351000   24.980000 N     3 ALA    -0.4157 ****
 19 H      30.734000   31.230000   24.417000 H     3 ALA     0.2719 ****
 20 CA     29.873000   32.502000   25.887000 C     3 ALA     0.0337 ****
 21 HA     28.855000   32.631000   26.260000 H     3 ALA     0.0823 ****
 22 CB     30.776000   32.198000   27.091000 C     3 ALA    -0.1825 ****
 23 HB1    30.712000   33.013000   27.813000 H     3 ALA     0.0603 ****
 24 HB2    30.450000   31.276000   27.574000 H     3 ALA     0.0603 ****
 25 HB3    31.811000   32.092000   26.765000 H     3 ALA     0.0603 ****
 26 C      30.239000   33.819000   25.162000 C     3 ALA     0.5973 ****
 27 O      30.624000   34.802000   25.793000 O     3 ALA    -0.5679 ****
 28 N      30.151000   33.840000   23.826000 N     4 GLY    -0.4157 ****
 29 H      29.864000   32.991000   23.354000 H     4 GLY     0.2719 ****
 30 CA     30.556000   34.973000   22.990000 C     4 GLY    -0.0252 ****
 31 HA2    30.061000   34.901000   22.022000 H     4 GLY     0.0698 ****
 32 HA3    30.255000   35.909000   23.461000 H     4 GLY     0.0698 ****
 33 C      32.067000   34.993000   22.754000 C     4 GLY     0.5973 ****
 34 O      32.536000   34.436000   21.766000 O     4 GLY    -0.5679 ****
 35 N      32.820000   35.626000   23.661000 N     5 NME    -0.4157 ****
 36 H      32.351000   36.007000   24.471000 H     5 NME     0.2719 ****
 37 CH3    34.275000   35.739000   23.586000 C     5 NME    -0.1490 ****
 38 HH31   34.655000   36.281000   24.453000 H     5 NME     0.0976 ****
 39 HH32   34.720000   34.743000   23.560000 H     5 NME     0.0976 ****
 40 HH33   34.557000   36.271000   22.675000 H     5 NME     0.0976 ****
@<TRIPOS>BOND
    1     5     6 1
    2     5     7 1
    3     2     3 1
    4     2     4 1
    5     2     5 1
    6     1     2 1
    7    16    17 1
    8    16    18 1
    9    14    15 1
   10    11    12 1
   11    11    13 1
   12    11    14 1
   13     9    10 1
   14     9    11 1
   15     9    16 1
   16     7     8 1
   17     7     9 1
   18    26    27 1
   19    26    28 1
   20    22    23 1
   21    22    24 1
   22    22    25 1
   23    20    21 1
   24    20    22 1
   25    20    26 1
   26    18    19 1
   27    18    20 1
   28    33    34 1
   29    33    35 1
   30    30    31 1
   31    30    32 1
   32    30    33 1
   33    28    29 1
   34    28    30 1
   35    37    38 1
   36    37    39 1
   37    37    40 1
   38    35    36 1
   39    35    37 1
@<TRIPOS>SUBSTRUCTURE
      1  ACE              1 ****               0 ****  **** 
      2  SER              7 ****               0 ****  **** 
      3  ALA             18 ****               0 ****  **** 
      4  GLY             28 ****               0 ****  **** 
      5  NME             35 ****               0 ****  **** 
