@<TRIPOS>MOLECULE
default_name
   40    39     5     0     1 
SMALL
USER_CHARGES
@<TRIPOS>ATOM
  1 H1     26.352000   31.295000   21.747000 H     1 ACE     0.1123 ****
  2 CH3    27.003000   30.442000   21.557000 C     1 ACE    -0.3662 ****
  3 H2     27.701000   30.690000   20.760000 H     1 ACE     0.1123 ****
  4 H3     26.400000   29.582000   21.271000 H     1 ACE     0.1123 ****
  5 C      27.771000   30.121000   22.817000 C     1 ACE     0.5972 ****
  6 O      27.600000   30.787000   23.831000 O     1 ACE    -0.5679 ****
  7 N      28.633000   29.107000   22.755000 N     2 SER    -0.4157 ****
  8 H      28.738000   28.627000   21.876000 H     2 SER     0.2719 ****
  9 CA     29.481000   28.695000   23.883000 C     2 SER    -0.0249 ****
 10 HA     28.841000   28.441000   24.729000 H     2 SER     0.0843 ****
 11 CB     30.273000   27.439000   23.505000 C     2 SER     0.2117 ****
 12 HB2    29.578000   26.617000   23.326000 H     2 SER     0.0352 ****
 13 HB3    30.846000   27.622000   22.594000 H     2 SER     0.0352 ****
 14 OG     31.157000   27.080000   24.545000 O     2 SER    -0.6546 ****
 15 HG     31.934000   27.650000   24.489000 H     2 SER     0.4275 ****
 16 C      30.428000   29.824000   24.309000 C     2 SER     0.5973 ****
 17 O      31.410000   30.088000   23.619000 O     2 SER    -0.5679 ****
 18 N      30.140000   30.456000   25.453000 N     3 ALA    -0.4157 ****
 19 H      29.305000   30.149000   25.928000 H     3 ALA     0.2719 ****
 20 CA     30.744000   31.700000   25.958000 C     3 ALA     0.0337 ****
 21 HA     29.982000   32.208000   26.550000 H     3 ALA     0.0823 ****
 22 CB     31.884000   31.312000   26.913000 C     3 ALA    -0.1825 ****
 23 HB1    32.685000   30.827000   26.353000 H     3 ALA     0.0603 ****
 24 HB2    32.282000   32.205000   27.396000 H     3 ALA     0.0603 ****
 25 HB3    31.516000   30.631000   27.681000 H     3 ALA     0.0603 ****
 26 C      31.186000   32.724000   24.877000 C     3 ALA     0.5973 ****
 27 O      32.236000   33.357000   24.989000 O     3 ALA    -0.5679 ****
 28 N      30.366000   32.910000   23.835000 N     4 GLY    -0.4157 ****
 29 H      29.507000   32.383000   23.812000 H     4 GLY     0.2719 ****
 30 CA     30.637000   33.828000   22.726000 C     4 GLY    -0.0252 ****
 31 HA2    31.687000   33.753000   22.439000 H     4 GLY     0.0698 ****
 32 HA3    30.030000   33.540000   21.868000 H     4 GLY     0.0698 ****
 33 C      30.314000   35.283000   23.071000 C     4 GLY     0.5973 ****
 34 O      29.199000   35.735000   22.827000 O     4 GLY    -0.5679 ****
 35 N      31.289000   36.016000   23.622000 N     5 NME    -0.4157 ****
 36 H      32.160000   35.550000   23.832000 H     5 NME     0.2719 ****
 37 CH3    31.145000   37.419000   24.003000 C     5 NME    -0.1490 ****
 38 HH31   32.071000   37.783000   24.452000 H     5 NME     0.0976 ****
 39 HH32   30.910000   38.018000   23.122000 H     5 NME     0.0976 ****
 40 HH33   30.331000   37.522000   24.723000 H     5 NME     0.0976 ****
@<TRIPOS>BOND
    1     5     6 1
    2     5     7 1
    3     2     3 1
    4     2     4 1
    5     2     5 1
    6     1     2 1
    7    16    17 1
    8    16    18 1
    9    14    15 1
   10    11    12 1
   11    11    13 1
   12    11    14 1
   13     9    10 1
   14     9    11 1
   15     9    16 1
   16     7     8 1
   17     7     9 1
   18    26    27 1
   19    26    28 1
   20    22    23 1
   21    22    24 1
   22    22    25 1
   23    20    21 1
   24    20    22 1
   25    20    26 1
   26    18    19 1
   27    18    20 1
   28    33    34 1
   29    33    35 1
   30    30    31 1
   31    30    32 1
   32    30    33 1
   33    28    29 1
   34    28    30 1
   35    37    38 1
   36    37    39 1
   37    37    40 1
   38    35    36 1
   39    35    37 1
@<TRIPOS>SUBSTRUCTURE
      1  ACE              1 ****               0 ****  **** 
      2  SER              7 ****               0 ****  **** 
      3  ALA             18 ****               0 ****  **** 
      4  GLY             28 ****               0 ****  **** 
      5  NME             35 ****               0 ****  **** 
