@<TRIPOS>MOLECULE
default_name
   40    39     5     0     1 
SMALL
USER_CHARGES
@<TRIPOS>ATOM
  1 H1     26.215000   24.965000   24.576000 H     1 ACE     0.1123 ****
  2 CH3    26.132000   26.025000   24.335000 C     1 ACE    -0.3662 ****
  3 H2     25.641000   26.548000   25.153000 H     1 ACE     0.1123 ****
  4 H3     25.561000   26.149000   23.418000 H     1 ACE     0.1123 ****
  5 C      27.519000   26.592000   24.142000 C     1 ACE     0.5972 ****
  6 O      28.500000   25.870000   24.257000 O     1 ACE    -0.5679 ****
  7 N      27.596000   27.886000   23.840000 N     2 SER    -0.4157 ****
  8 H      26.742000   28.423000   23.796000 H     2 SER     0.2719 ****
  9 CA     28.846000   28.646000   23.702000 C     2 SER    -0.0249 ****
 10 HA     29.534000   28.339000   24.490000 H     2 SER     0.0843 ****
 11 CB     29.503000   28.332000   22.352000 C     2 SER     0.2117 ****
 12 HB2    29.601000   27.251000   22.238000 H     2 SER     0.0352 ****
 13 HB3    28.880000   28.719000   21.544000 H     2 SER     0.0352 ****
 14 OG     30.791000   28.914000   22.284000 O     2 SER    -0.6546 ****
 15 HG     31.188000   28.696000   21.435000 H     2 SER     0.4275 ****
 16 C      28.580000   30.153000   23.863000 C     2 SER     0.5973 ****
 17 O      27.423000   30.572000   23.928000 O     2 SER    -0.5679 ****
 18 N      29.635000   30.967000   23.936000 N     3 ALA    -0.4157 ****
 19 H      30.538000   30.560000   23.724000 H     3 ALA     0.2719 ****
 20 CA     29.567000   32.424000   24.068000 C     3 ALA     0.0337 ****
 21 HA     28.698000   32.796000   23.523000 H     3 ALA     0.0823 ****
 22 CB     29.377000   32.745000   25.564000 C     3 ALA    -0.1825 ****
 23 HB1    30.254000   32.428000   26.131000 H     3 ALA     0.0603 ****
 24 HB2    29.217000   33.814000   25.706000 H     3 ALA     0.0603 ****
 25 HB3    28.499000   32.220000   25.946000 H     3 ALA     0.0603 ****
 26 C      30.822000   33.089000   23.452000 C     3 ALA     0.5973 ****
 27 O      31.418000   32.553000   22.519000 O     3 ALA    -0.5679 ****
 28 N      31.252000   34.241000   23.975000 N     4 GLY    -0.4157 ****
 29 H      30.748000   34.646000   24.751000 H     4 GLY     0.2719 ****
 30 CA     32.432000   34.972000   23.509000 C     4 GLY    -0.0252 ****
 31 HA2    33.309000   34.330000   23.588000 H     4 GLY     0.0698 ****
 32 HA3    32.298000   35.244000   22.462000 H     4 GLY     0.0698 ****
 33 C      32.681000   36.247000   24.320000 C     4 GLY     0.5973 ****
 34 O      31.927000   36.556000   25.241000 O     4 GLY    -0.5679 ****
 35 N      33.742000   36.984000   23.974000 N     5 NME    -0.4157 ****
 36 H      34.313000   36.664000   23.208000 H     5 NME     0.2719 ****
 37 CH3    34.124000   38.227000   24.643000 C     5 NME    -0.1490 ****
 38 HH31   33.310000   38.952000   24.567000 H     5 NME     0.0976 ****
 39 HH32   34.317000   38.033000   25.700000 H     5 NME     0.0976 ****
 40 HH33   35.021000   38.646000   24.184000 H     5 NME     0.0976 ****
@<TRIPOS>BOND
    1     5     6 1
    2     5     7 1
    3     2     3 1
    4     2     4 1
    5     2     5 1
    6     1     2 1
    7    16    17 1
    8    16    18 1
    9    14    15 1
   10    11    12 1
   11    11    13 1
   12    11    14 1
   13     9    10 1
   14     9    11 1
   15     9    16 1
   16     7     8 1
   17     7     9 1
   18    26    27 1
   19    26    28 1
   20    22    23 1
   21    22    24 1
   22    22    25 1
   23    20    21 1
   24    20    22 1
   25    20    26 1
   26    18    19 1
   27    18    20 1
   28    33    34 1
   29    33    35 1
   30    30    31 1
   31    30    32 1
   32    30    33 1
   33    28    29 1
   34    28    30 1
   35    37    38 1
   36    37    39 1
   37    37    40 1
   38    35    36 1
   39    35    37 1
@<TRIPOS>SUBSTRUCTURE
      1  ACE              1 ****               0 ****  **** 
      2  SER              7 ****               0 ****  **** 
      3  ALA             18 ****               0 ****  **** 
      4  GLY             28 ****               0 ****  **** 
      5  NME             35 ****               0 ****  **** 
