@<TRIPOS>MOLECULE
default_name
   40    39     5     0     1 
SMALL
USER_CHARGES
@<TRIPOS>ATOM
  1 H1     26.267000   25.049000   23.194000 H     1 ACE     0.1123 ****
  2 CH3    26.209000   26.136000   23.151000 C     1 ACE    -0.3662 ****
  3 H2     25.475000   26.492000   23.871000 H     1 ACE     0.1123 ****
  4 H3     25.927000   26.447000   22.147000 H     1 ACE     0.1123 ****
  5 C      27.563000   26.712000   23.491000 C     1 ACE     0.5972 ****
  6 O      28.499000   25.970000   23.754000 O     1 ACE    -0.5679 ****
  7 N      27.664000   28.039000   23.486000 N     2 SER    -0.4157 ****
  8 H      26.840000   28.587000   23.282000 H     2 SER     0.2719 ****
  9 CA     28.883000   28.788000   23.818000 C     2 SER    -0.0249 ****
 10 HA     29.408000   28.275000   24.624000 H     2 SER     0.0843 ****
 11 CB     29.814000   28.841000   22.596000 C     2 SER     0.2117 ****
 12 HB2    30.084000   27.822000   22.315000 H     2 SER     0.0352 ****
 13 HB3    29.292000   29.306000   21.758000 H     2 SER     0.0352 ****
 14 OG     31.000000   29.567000   22.867000 O     2 SER    -0.6546 ****
 15 HG     30.838000   30.518000   22.718000 H     2 SER     0.4275 ****
 16 C      28.538000   30.205000   24.284000 C     2 SER     0.5973 ****
 17 O      27.478000   30.730000   23.946000 O     2 SER    -0.5679 ****
 18 N      29.459000   30.841000   25.012000 N     3 ALA    -0.4157 ****
 19 H      30.310000   30.338000   25.211000 H     3 ALA     0.2719 ****
 20 CA     29.496000   32.298000   25.142000 C     3 ALA     0.0337 ****
 21 HA     28.496000   32.715000   25.006000 H     3 ALA     0.0823 ****
 22 CB     29.956000   32.613000   26.576000 C     3 ALA    -0.1825 ****
 23 HB1    30.979000   32.266000   26.729000 H     3 ALA     0.0603 ****
 24 HB2    29.907000   33.687000   26.761000 H     3 ALA     0.0603 ****
 25 HB3    29.299000   32.115000   27.290000 H     3 ALA     0.0603 ****
 26 C      30.410000   32.895000   24.042000 C     3 ALA     0.5973 ****
 27 O      30.577000   32.295000   22.977000 O     3 ALA    -0.5679 ****
 28 N      31.055000   34.034000   24.304000 N     4 GLY    -0.4157 ****
 29 H      30.914000   34.486000   25.197000 H     4 GLY     0.2719 ****
 30 CA     31.980000   34.695000   23.381000 C     4 GLY    -0.0252 ****
 31 HA2    32.789000   34.010000   23.127000 H     4 GLY     0.0698 ****
 32 HA3    31.451000   34.959000   22.465000 H     4 GLY     0.0698 ****
 33 C      32.584000   35.967000   23.983000 C     4 GLY     0.5973 ****
 34 O      32.274000   36.323000   25.119000 O     4 GLY    -0.5679 ****
 35 N      33.446000   36.648000   23.219000 N     5 NME    -0.4157 ****
 36 H      33.649000   36.291000   22.299000 H     5 NME     0.2719 ****
 37 CH3    34.111000   37.880000   23.641000 C     5 NME    -0.1490 ****
 38 HH31   33.364000   38.641000   23.875000 H     5 NME     0.0976 ****
 39 HH32   34.705000   37.690000   24.538000 H     5 NME     0.0976 ****
 40 HH33   34.765000   38.248000   22.849000 H     5 NME     0.0976 ****
@<TRIPOS>BOND
    1     5     6 1
    2     5     7 1
    3     2     3 1
    4     2     4 1
    5     2     5 1
    6     1     2 1
    7    16    17 1
    8    16    18 1
    9    14    15 1
   10    11    12 1
   11    11    13 1
   12    11    14 1
   13     9    10 1
   14     9    11 1
   15     9    16 1
   16     7     8 1
   17     7     9 1
   18    26    27 1
   19    26    28 1
   20    22    23 1
   21    22    24 1
   22    22    25 1
   23    20    21 1
   24    20    22 1
   25    20    26 1
   26    18    19 1
   27    18    20 1
   28    33    34 1
   29    33    35 1
   30    30    31 1
   31    30    32 1
   32    30    33 1
   33    28    29 1
   34    28    30 1
   35    37    38 1
   36    37    39 1
   37    37    40 1
   38    35    36 1
   39    35    37 1
@<TRIPOS>SUBSTRUCTURE
      1  ACE              1 ****               0 ****  **** 
      2  SER              7 ****               0 ****  **** 
      3  ALA             18 ****               0 ****  **** 
      4  GLY             28 ****               0 ****  **** 
      5  NME             35 ****               0 ****  **** 
