@<TRIPOS>MOLECULE
default_name
   40    39     5     0     1 
SMALL
USER_CHARGES
@<TRIPOS>ATOM
  1 H1     25.182000   26.489000   24.768000 H     1 ACE     0.1123 ****
  2 CH3    25.354000   27.366000   24.146000 C     1 ACE    -0.3662 ****
  3 H2     24.545000   28.079000   24.289000 H     1 ACE     0.1123 ****
  4 H3     25.400000   27.061000   23.103000 H     1 ACE     0.1123 ****
  5 C      26.655000   28.008000   24.572000 C     1 ACE     0.5972 ****
  6 O      26.948000   28.053000   25.758000 O     1 ACE    -0.5679 ****
  7 N      27.454000   28.465000   23.609000 N     2 SER    -0.4157 ****
  8 H      27.149000   28.395000   22.649000 H     2 SER     0.2719 ****
  9 CA     28.823000   28.955000   23.832000 C     2 SER    -0.0249 ****
 10 HA     28.825000   29.593000   24.712000 H     2 SER     0.0843 ****
 11 CB     29.717000   27.725000   24.072000 C     2 SER     0.2117 ****
 12 HB2    29.511000   27.328000   25.066000 H     2 SER     0.0352 ****
 13 HB3    29.468000   26.955000   23.340000 H     2 SER     0.0352 ****
 14 OG     31.099000   27.999000   23.962000 O     2 SER    -0.6546 ****
 15 HG     31.345000   27.968000   23.032000 H     2 SER     0.4275 ****
 16 C      29.324000   29.740000   22.609000 C     2 SER     0.5973 ****
 17 O      29.053000   29.279000   21.500000 O     2 SER    -0.5679 ****
 18 N      30.064000   30.864000   22.719000 N     3 ALA    -0.4157 ****
 19 H      30.443000   31.237000   21.852000 H     3 ALA     0.2719 ****
 20 CA     30.430000   31.718000   23.866000 C     3 ALA     0.0337 ****
 21 HA     29.536000   32.135000   24.329000 H     3 ALA     0.0823 ****
 22 CB     31.269000   30.969000   24.918000 C     3 ALA    -0.1825 ****
 23 HB1    32.121000   30.486000   24.442000 H     3 ALA     0.0603 ****
 24 HB2    31.641000   31.673000   25.663000 H     3 ALA     0.0603 ****
 25 HB3    30.679000   30.226000   25.445000 H     3 ALA     0.0603 ****
 26 C      31.309000   32.872000   23.325000 C     3 ALA     0.5973 ****
 27 O      31.878000   32.756000   22.239000 O     3 ALA    -0.5679 ****
 28 N      31.456000   33.975000   24.065000 N     4 GLY    -0.4157 ****
 29 H      30.941000   34.077000   24.928000 H     4 GLY     0.2719 ****
 30 CA     32.377000   35.060000   23.702000 C     4 GLY    -0.0252 ****
 31 HA2    33.391000   34.775000   23.981000 H     4 GLY     0.0698 ****
 32 HA3    32.354000   35.209000   22.622000 H     4 GLY     0.0698 ****
 33 C      32.056000   36.400000   24.365000 C     4 GLY     0.5973 ****
 34 O      31.135000   36.495000   25.173000 O     4 GLY    -0.5679 ****
 35 N      32.827000   37.433000   24.003000 N     5 NME    -0.4157 ****
 36 H      33.574000   37.246000   23.355000 H     5 NME     0.2719 ****
 37 CH3    32.641000   38.821000   24.429000 C     5 NME    -0.1490 ****
 38 HH31   31.880000   38.886000   25.209000 H     5 NME     0.0976 ****
 39 HH32   33.578000   39.222000   24.817000 H     5 NME     0.0976 ****
 40 HH33   32.320000   39.424000   23.578000 H     5 NME     0.0976 ****
@<TRIPOS>BOND
    1     5     6 1
    2     5     7 1
    3     2     3 1
    4     2     4 1
    5     2     5 1
    6     1     2 1
    7    16    17 1
    8    16    18 1
    9    14    15 1
   10    11    12 1
   11    11    13 1
   12    11    14 1
   13     9    10 1
   14     9    11 1
   15     9    16 1
   16     7     8 1
   17     7     9 1
   18    26    27 1
   19    26    28 1
   20    22    23 1
   21    22    24 1
   22    22    25 1
   23    20    21 1
   24    20    22 1
   25    20    26 1
   26    18    19 1
   27    18    20 1
   28    33    34 1
   29    33    35 1
   30    30    31 1
   31    30    32 1
   32    30    33 1
   33    28    29 1
   34    28    30 1
   35    37    38 1
   36    37    39 1
   37    37    40 1
   38    35    36 1
   39    35    37 1
@<TRIPOS>SUBSTRUCTURE
      1  ACE              1 ****               0 ****  **** 
      2  SER              7 ****               0 ****  **** 
      3  ALA             18 ****               0 ****  **** 
      4  GLY             28 ****               0 ****  **** 
      5  NME             35 ****               0 ****  **** 
