@<TRIPOS>MOLECULE
default_name
   40    39     5     0     1 
SMALL
USER_CHARGES
@<TRIPOS>ATOM
  1 H1     26.776000   25.989000   26.581000 H     1 ACE     0.1123 ****
  2 CH3    26.710000   26.981000   26.137000 C     1 ACE    -0.3662 ****
  3 H2     26.790000   27.736000   26.917000 H     1 ACE     0.1123 ****
  4 H3     25.762000   27.087000   25.614000 H     1 ACE     0.1123 ****
  5 C      27.846000   27.156000   25.156000 C     1 ACE     0.5972 ****
  6 O      28.645000   26.248000   24.969000 O     1 ACE    -0.5679 ****
  7 N      27.913000   28.323000   24.521000 N     2 SER    -0.4157 ****
  8 H      27.240000   29.042000   24.749000 H     2 SER     0.2719 ****
  9 CA     28.996000   28.711000   23.607000 C     2 SER    -0.0249 ****
 10 HA     29.943000   28.385000   24.037000 H     2 SER     0.0843 ****
 11 CB     28.813000   28.012000   22.253000 C     2 SER     0.2117 ****
 12 HB2    28.551000   26.964000   22.405000 H     2 SER     0.0352 ****
 13 HB3    28.008000   28.498000   21.699000 H     2 SER     0.0352 ****
 14 OG     30.014000   28.074000   21.507000 O     2 SER    -0.6546 ****
 15 HG     30.532000   27.289000   21.716000 H     2 SER     0.4275 ****
 16 C      29.054000   30.238000   23.437000 C     2 SER     0.5973 ****
 17 O      28.183000   30.938000   23.955000 O     2 SER    -0.5679 ****
 18 N      30.085000   30.728000   22.739000 N     3 ALA    -0.4157 ****
 19 H      30.707000   30.030000   22.355000 H     3 ALA     0.2719 ****
 20 CA     30.431000   32.124000   22.427000 C     3 ALA     0.0337 ****
 21 HA     30.893000   32.080000   21.441000 H     3 ALA     0.0823 ****
 22 CB     29.204000   33.036000   22.224000 C     3 ALA    -0.1825 ****
 23 HB1    28.749000   33.283000   23.184000 H     3 ALA     0.0603 ****
 24 HB2    29.505000   33.960000   21.730000 H     3 ALA     0.0603 ****
 25 HB3    28.467000   32.533000   21.596000 H     3 ALA     0.0603 ****
 26 C      31.564000   32.657000   23.330000 C     3 ALA     0.5973 ****
 27 O      32.452000   31.902000   23.721000 O     3 ALA    -0.5679 ****
 28 N      31.560000   33.954000   23.648000 N     4 GLY    -0.4157 ****
 29 H      30.808000   34.538000   23.310000 H     4 GLY     0.2719 ****
 30 CA     32.567000   34.602000   24.490000 C     4 GLY    -0.0252 ****
 31 HA2    32.559000   34.140000   25.478000 H     4 GLY     0.0698 ****
 32 HA3    33.554000   34.457000   24.051000 H     4 GLY     0.0698 ****
 33 C      32.315000   36.104000   24.647000 C     4 GLY     0.5973 ****
 34 O      31.381000   36.644000   24.057000 O     4 GLY    -0.5679 ****
 35 N      33.152000   36.776000   25.445000 N     5 NME    -0.4157 ****
 36 H      33.894000   36.261000   25.895000 H     5 NME     0.2719 ****
 37 CH3    33.055000   38.211000   25.707000 C     5 NME    -0.1490 ****
 38 HH31   32.084000   38.439000   26.153000 H     5 NME     0.0976 ****
 39 HH32   33.846000   38.528000   26.387000 H     5 NME     0.0976 ****
 40 HH33   33.143000   38.763000   24.769000 H     5 NME     0.0976 ****
@<TRIPOS>BOND
    1     5     6 1
    2     5     7 1
    3     2     3 1
    4     2     4 1
    5     2     5 1
    6     1     2 1
    7    16    17 1
    8    16    18 1
    9    14    15 1
   10    11    12 1
   11    11    13 1
   12    11    14 1
   13     9    10 1
   14     9    11 1
   15     9    16 1
   16     7     8 1
   17     7     9 1
   18    26    27 1
   19    26    28 1
   20    22    23 1
   21    22    24 1
   22    22    25 1
   23    20    21 1
   24    20    22 1
   25    20    26 1
   26    18    19 1
   27    18    20 1
   28    33    34 1
   29    33    35 1
   30    30    31 1
   31    30    32 1
   32    30    33 1
   33    28    29 1
   34    28    30 1
   35    37    38 1
   36    37    39 1
   37    37    40 1
   38    35    36 1
   39    35    37 1
@<TRIPOS>SUBSTRUCTURE
      1  ACE              1 ****               0 ****  **** 
      2  SER              7 ****               0 ****  **** 
      3  ALA             18 ****               0 ****  **** 
      4  GLY             28 ****               0 ****  **** 
      5  NME             35 ****               0 ****  **** 
