@<TRIPOS>MOLECULE
default_name
   40    39     5     0     1 
SMALL
USER_CHARGES
@<TRIPOS>ATOM
  1 H1     25.638000   26.067000   22.081000 H     1 ACE     0.1123 ****
  2 CH3    26.023000   27.086000   22.057000 C     1 ACE    -0.3662 ****
  3 H2     25.232000   27.781000   22.333000 H     1 ACE     0.1123 ****
  4 H3     26.388000   27.316000   21.058000 H     1 ACE     0.1123 ****
  5 C      27.158000   27.205000   23.046000 C     1 ACE     0.5972 ****
  6 O      27.503000   26.234000   23.706000 O     1 ACE    -0.5679 ****
  7 N      27.743000   28.397000   23.140000 N     2 SER    -0.4157 ****
  8 H      27.378000   29.159000   22.586000 H     2 SER     0.2719 ****
  9 CA     28.801000   28.743000   24.099000 C     2 SER    -0.0249 ****
 10 HA     28.565000   28.294000   25.064000 H     2 SER     0.0843 ****
 11 CB     30.145000   28.170000   23.626000 C     2 SER     0.2117 ****
 12 HB2    30.033000   27.107000   23.410000 H     2 SER     0.0352 ****
 13 HB3    30.458000   28.686000   22.716000 H     2 SER     0.0352 ****
 14 OG     31.133000   28.330000   24.628000 O     2 SER    -0.6546 ****
 15 HG     31.987000   28.077000   24.262000 H     2 SER     0.4275 ****
 16 C      28.881000   30.267000   24.286000 C     2 SER     0.5973 ****
 17 O      28.213000   31.017000   23.572000 O     2 SER    -0.5679 ****
 18 N      29.695000   30.733000   25.234000 N     3 ALA    -0.4157 ****
 19 H      30.305000   30.059000   25.678000 H     3 ALA     0.2719 ****
 20 CA     29.955000   32.151000   25.475000 C     3 ALA     0.0337 ****
 21 HA     29.085000   32.731000   25.161000 H     3 ALA     0.0823 ****
 22 CB     30.143000   32.362000   26.983000 C     3 ALA    -0.1825 ****
 23 HB1    31.014000   31.803000   27.331000 H     3 ALA     0.0603 ****
 24 HB2    30.293000   33.421000   27.194000 H     3 ALA     0.0603 ****
 25 HB3    29.257000   32.018000   27.518000 H     3 ALA     0.0603 ****
 26 C      31.173000   32.654000   24.674000 C     3 ALA     0.5973 ****
 27 O      32.077000   31.890000   24.338000 O     3 ALA    -0.5679 ****
 28 N      31.214000   33.958000   24.392000 N     4 GLY    -0.4157 ****
 29 H      30.455000   34.553000   24.695000 H     4 GLY     0.2719 ****
 30 CA     32.299000   34.607000   23.654000 C     4 GLY    -0.0252 ****
 31 HA2    33.245000   34.420000   24.163000 H     4 GLY     0.0698 ****
 32 HA3    32.358000   34.180000   22.653000 H     4 GLY     0.0698 ****
 33 C      32.097000   36.120000   23.533000 C     4 GLY     0.5973 ****
 34 O      31.125000   36.663000   24.055000 O     4 GLY    -0.5679 ****
 35 N      33.020000   36.798000   22.841000 N     5 NME    -0.4157 ****
 36 H      33.788000   36.281000   22.443000 H     5 NME     0.2719 ****
 37 CH3    32.980000   38.244000   22.629000 C     5 NME    -0.1490 ****
 38 HH31   32.994000   38.759000   23.591000 H     5 NME     0.0976 ****
 39 HH32   33.838000   38.565000   22.036000 H     5 NME     0.0976 ****
 40 HH33   32.060000   38.514000   22.105000 H     5 NME     0.0976 ****
@<TRIPOS>BOND
    1     5     6 1
    2     5     7 1
    3     2     3 1
    4     2     4 1
    5     2     5 1
    6     1     2 1
    7    16    17 1
    8    16    18 1
    9    14    15 1
   10    11    12 1
   11    11    13 1
   12    11    14 1
   13     9    10 1
   14     9    11 1
   15     9    16 1
   16     7     8 1
   17     7     9 1
   18    26    27 1
   19    26    28 1
   20    22    23 1
   21    22    24 1
   22    22    25 1
   23    20    21 1
   24    20    22 1
   25    20    26 1
   26    18    19 1
   27    18    20 1
   28    33    34 1
   29    33    35 1
   30    30    31 1
   31    30    32 1
   32    30    33 1
   33    28    29 1
   34    28    30 1
   35    37    38 1
   36    37    39 1
   37    37    40 1
   38    35    36 1
   39    35    37 1
@<TRIPOS>SUBSTRUCTURE
      1  ACE              1 ****               0 ****  **** 
      2  SER              7 ****               0 ****  **** 
      3  ALA             18 ****               0 ****  **** 
      4  GLY             28 ****               0 ****  **** 
      5  NME             35 ****               0 ****  **** 
