@<TRIPOS>MOLECULE
default_name
   40    39     5     0     1 
SMALL
USER_CHARGES
@<TRIPOS>ATOM
  1 H1     25.745000   32.209000   22.827000 H     1 ACE     0.1123 ****
  2 CH3    26.824000   32.193000   22.975000 C     1 ACE    -0.3662 ****
  3 H2     27.108000   32.964000   23.689000 H     1 ACE     0.1123 ****
  4 H3     27.329000   32.364000   22.026000 H     1 ACE     0.1123 ****
  5 C      27.224000   30.842000   23.520000 C     1 ACE     0.5972 ****
  6 O      26.365000   30.024000   23.811000 O     1 ACE    -0.5679 ****
  7 N      28.531000   30.613000   23.652000 N     2 SER    -0.4157 ****
  8 H      29.152000   31.368000   23.388000 H     2 SER     0.2719 ****
  9 CA     29.098000   29.340000   24.143000 C     2 SER    -0.0249 ****
 10 HA     28.401000   28.915000   24.867000 H     2 SER     0.0843 ****
 11 CB     29.209000   28.347000   22.977000 C     2 SER     0.2117 ****
 12 HB2    28.245000   28.271000   22.470000 H     2 SER     0.0352 ****
 13 HB3    29.954000   28.705000   22.265000 H     2 SER     0.0352 ****
 14 OG     29.580000   27.063000   23.438000 O     2 SER    -0.6546 ****
 15 HG     30.289000   27.176000   24.091000 H     2 SER     0.4275 ****
 16 C      30.455000   29.471000   24.866000 C     2 SER     0.5973 ****
 17 O      31.006000   28.465000   25.304000 O     2 SER    -0.5679 ****
 18 N      30.982000   30.694000   25.003000 N     3 ALA    -0.4157 ****
 19 H      30.437000   31.457000   24.621000 H     3 ALA     0.2719 ****
 20 CA     32.330000   31.058000   25.477000 C     3 ALA     0.0337 ****
 21 HA     32.405000   30.901000   26.554000 H     3 ALA     0.0823 ****
 22 CB     33.413000   30.226000   24.758000 C     3 ALA    -0.1825 ****
 23 HB1    33.280000   30.286000   23.676000 H     3 ALA     0.0603 ****
 24 HB2    34.401000   30.610000   25.014000 H     3 ALA     0.0603 ****
 25 HB3    33.371000   29.183000   25.070000 H     3 ALA     0.0603 ****
 26 C      32.523000   32.557000   25.162000 C     3 ALA     0.5973 ****
 27 O      33.305000   32.960000   24.303000 O     3 ALA    -0.5679 ****
 28 N      31.670000   33.385000   25.773000 N     4 GLY    -0.4157 ****
 29 H      31.065000   32.994000   26.479000 H     4 GLY     0.2719 ****
 30 CA     31.233000   34.625000   25.127000 C     4 GLY    -0.0252 ****
 31 HA2    30.658000   35.227000   25.829000 H     4 GLY     0.0698 ****
 32 HA3    32.106000   35.199000   24.811000 H     4 GLY     0.0698 ****
 33 C      30.359000   34.326000   23.897000 C     4 GLY     0.5973 ****
 34 O      29.832000   33.217000   23.760000 O     4 GLY    -0.5679 ****
 35 N      30.196000   35.314000   23.011000 N     5 NME    -0.4157 ****
 36 H      30.677000   36.185000   23.179000 H     5 NME     0.2719 ****
 37 CH3    29.401000   35.196000   21.791000 C     5 NME    -0.1490 ****
 38 HH31   28.359000   34.988000   22.044000 H     5 NME     0.0976 ****
 39 HH32   29.451000   36.123000   21.216000 H     5 NME     0.0976 ****
 40 HH33   29.783000   34.377000   21.178000 H     5 NME     0.0976 ****
@<TRIPOS>BOND
    1     5     6 1
    2     5     7 1
    3     2     3 1
    4     2     4 1
    5     2     5 1
    6     1     2 1
    7    16    17 1
    8    16    18 1
    9    14    15 1
   10    11    12 1
   11    11    13 1
   12    11    14 1
   13     9    10 1
   14     9    11 1
   15     9    16 1
   16     7     8 1
   17     7     9 1
   18    26    27 1
   19    26    28 1
   20    22    23 1
   21    22    24 1
   22    22    25 1
   23    20    21 1
   24    20    22 1
   25    20    26 1
   26    18    19 1
   27    18    20 1
   28    33    34 1
   29    33    35 1
   30    30    31 1
   31    30    32 1
   32    30    33 1
   33    28    29 1
   34    28    30 1
   35    37    38 1
   36    37    39 1
   37    37    40 1
   38    35    36 1
   39    35    37 1
@<TRIPOS>SUBSTRUCTURE
      1  ACE              1 ****               0 ****  **** 
      2  SER              7 ****               0 ****  **** 
      3  ALA             18 ****               0 ****  **** 
      4  GLY             28 ****               0 ****  **** 
      5  NME             35 ****               0 ****  **** 
