@<TRIPOS>MOLECULE
default_name
   40    39     5     0     1 
SMALL
USER_CHARGES
@<TRIPOS>ATOM
  1 H1     25.905000   29.492000   21.969000 H     1 ACE     0.1123 ****
  2 CH3    26.276000   30.190000   22.717000 C     1 ACE    -0.3662 ****
  3 H2     25.436000   30.666000   23.221000 H     1 ACE     0.1123 ****
  4 H3     26.895000   30.951000   22.243000 H     1 ACE     0.1123 ****
  5 C      27.101000   29.444000   23.737000 C     1 ACE     0.5972 ****
  6 O      26.785000   29.465000   24.919000 O     1 ACE    -0.5679 ****
  7 N      28.173000   28.800000   23.278000 N     2 SER    -0.4157 ****
  8 H      28.369000   28.877000   22.293000 H     2 SER     0.2719 ****
  9 CA     29.152000   28.079000   24.112000 C     2 SER    -0.0249 ****
 10 HA     28.670000   27.798000   25.050000 H     2 SER     0.0843 ****
 11 CB     29.558000   26.776000   23.410000 C     2 SER     0.2117 ****
 12 HB2    28.669000   26.170000   23.231000 H     2 SER     0.0352 ****
 13 HB3    30.028000   27.007000   22.452000 H     2 SER     0.0352 ****
 14 OG     30.462000   26.041000   24.206000 O     2 SER    -0.6546 ****
 15 HG     31.252000   26.596000   24.307000 H     2 SER     0.4275 ****
 16 C      30.356000   28.971000   24.478000 C     2 SER     0.5973 ****
 17 O      31.501000   28.589000   24.239000 O     2 SER    -0.5679 ****
 18 N      30.061000   30.175000   24.987000 N     3 ALA    -0.4157 ****
 19 H      29.080000   30.341000   25.141000 H     3 ALA     0.2719 ****
 20 CA     30.915000   31.361000   25.163000 C     3 ALA     0.0337 ****
 21 HA     30.571000   31.815000   26.093000 H     3 ALA     0.0823 ****
 22 CB     32.403000   31.052000   25.410000 C     3 ALA    -0.1825 ****
 23 HB1    32.874000   30.716000   24.486000 H     3 ALA     0.0603 ****
 24 HB2    32.916000   31.950000   25.754000 H     3 ALA     0.0603 ****
 25 HB3    32.502000   30.278000   26.172000 H     3 ALA     0.0603 ****
 26 C      30.641000   32.431000   24.085000 C     3 ALA     0.5973 ****
 27 O      30.016000   32.156000   23.060000 O     3 ALA    -0.5679 ****
 28 N      31.083000   33.667000   24.329000 N     4 GLY    -0.4157 ****
 29 H      31.592000   33.850000   25.183000 H     4 GLY     0.2719 ****
 30 CA     30.905000   34.801000   23.421000 C     4 GLY    -0.0252 ****
 31 HA2    31.367000   34.570000   22.461000 H     4 GLY     0.0698 ****
 32 HA3    29.840000   34.971000   23.258000 H     4 GLY     0.0698 ****
 33 C      31.530000   36.086000   23.972000 C     4 GLY     0.5973 ****
 34 O      32.081000   36.087000   25.071000 O     4 GLY    -0.5679 ****
 35 N      31.443000   37.178000   23.204000 N     5 NME    -0.4157 ****
 36 H      30.977000   37.097000   22.314000 H     5 NME     0.2719 ****
 37 CH3    31.986000   38.483000   23.579000 C     5 NME    -0.1490 ****
 38 HH31   31.525000   38.821000   24.509000 H     5 NME     0.0976 ****
 39 HH32   33.064000   38.402000   23.737000 H     5 NME     0.0976 ****
 40 HH33   31.792000   39.215000   22.794000 H     5 NME     0.0976 ****
@<TRIPOS>BOND
    1     5     6 1
    2     5     7 1
    3     2     3 1
    4     2     4 1
    5     2     5 1
    6     1     2 1
    7    16    17 1
    8    16    18 1
    9    14    15 1
   10    11    12 1
   11    11    13 1
   12    11    14 1
   13     9    10 1
   14     9    11 1
   15     9    16 1
   16     7     8 1
   17     7     9 1
   18    26    27 1
   19    26    28 1
   20    22    23 1
   21    22    24 1
   22    22    25 1
   23    20    21 1
   24    20    22 1
   25    20    26 1
   26    18    19 1
   27    18    20 1
   28    33    34 1
   29    33    35 1
   30    30    31 1
   31    30    32 1
   32    30    33 1
   33    28    29 1
   34    28    30 1
   35    37    38 1
   36    37    39 1
   37    37    40 1
   38    35    36 1
   39    35    37 1
@<TRIPOS>SUBSTRUCTURE
      1  ACE              1 ****               0 ****  **** 
      2  SER              7 ****               0 ****  **** 
      3  ALA             18 ****               0 ****  **** 
      4  GLY             28 ****               0 ****  **** 
      5  NME             35 ****               0 ****  **** 
