@<TRIPOS>MOLECULE
default_name
   40    39     5     0     1 
SMALL
USER_CHARGES
@<TRIPOS>ATOM
  1 H1     24.977000   28.965000   23.199000 H     1 ACE     0.1123 ****
  2 CH3    25.853000   28.890000   22.556000 C     1 ACE    -0.3662 ****
  3 H2     25.894000   29.755000   21.896000 H     1 ACE     0.1123 ****
  4 H3     25.797000   27.975000   21.970000 H     1 ACE     0.1123 ****
  5 C      27.091000   28.858000   23.420000 C     1 ACE     0.5972 ****
  6 O      26.995000   28.916000   24.639000 O     1 ACE    -0.5679 ****
  7 N      28.260000   28.767000   22.787000 N     2 SER    -0.4157 ****
  8 H      28.254000   28.749000   21.780000 H     2 SER     0.2719 ****
  9 CA     29.559000   28.781000   23.474000 C     2 SER    -0.0249 ****
 10 HA     29.507000   28.127000   24.345000 H     2 SER     0.0843 ****
 11 CB     30.643000   28.220000   22.545000 C     2 SER     0.2117 ****
 12 HB2    30.404000   27.184000   22.300000 H     2 SER     0.0352 ****
 13 HB3    30.680000   28.802000   21.622000 H     2 SER     0.0352 ****
 14 OG     31.905000   28.265000   23.175000 O     2 SER    -0.6546 ****
 15 HG     32.189000   29.189000   23.219000 H     2 SER     0.4275 ****
 16 C      29.928000   30.191000   23.954000 C     2 SER     0.5973 ****
 17 O      30.490000   30.967000   23.183000 O     2 SER    -0.5679 ****
 18 N      29.590000   30.507000   25.210000 N     3 ALA    -0.4157 ****
 19 H      29.049000   29.816000   25.708000 H     3 ALA     0.2719 ****
 20 CA     30.034000   31.662000   26.004000 C     3 ALA     0.0337 ****
 21 HA     29.211000   32.377000   26.021000 H     3 ALA     0.0823 ****
 22 CB     30.248000   31.185000   27.448000 C     3 ALA    -0.1825 ****
 23 HB1    31.045000   30.441000   27.480000 H     3 ALA     0.0603 ****
 24 HB2    30.530000   32.032000   28.075000 H     3 ALA     0.0603 ****
 25 HB3    29.328000   30.747000   27.838000 H     3 ALA     0.0603 ****
 26 C      31.271000   32.410000   25.456000 C     3 ALA     0.5973 ****
 27 O      32.404000   31.956000   25.614000 O     3 ALA    -0.5679 ****
 28 N      31.056000   33.568000   24.827000 N     4 GLY    -0.4157 ****
 29 H      30.108000   33.892000   24.699000 H     4 GLY     0.2719 ****
 30 CA     32.111000   34.370000   24.207000 C     4 GLY    -0.0252 ****
 31 HA2    32.841000   34.657000   24.964000 H     4 GLY     0.0698 ****
 32 HA3    32.616000   33.767000   23.451000 H     4 GLY     0.0698 ****
 33 C      31.566000   35.637000   23.542000 C     4 GLY     0.5973 ****
 34 O      30.378000   35.938000   23.646000 O     4 GLY    -0.5679 ****
 35 N      32.443000   36.380000   22.857000 N     5 NME    -0.4157 ****
 36 H      33.399000   36.064000   22.815000 H     5 NME     0.2719 ****
 37 CH3    32.095000   37.618000   22.161000 C     5 NME    -0.1490 ****
 38 HH31   31.691000   38.340000   22.873000 H     5 NME     0.0976 ****
 39 HH32   32.977000   38.042000   21.679000 H     5 NME     0.0976 ****
 40 HH33   31.334000   37.414000   21.405000 H     5 NME     0.0976 ****
@<TRIPOS>BOND
    1     5     6 1
    2     5     7 1
    3     2     3 1
    4     2     4 1
    5     2     5 1
    6     1     2 1
    7    16    17 1
    8    16    18 1
    9    14    15 1
   10    11    12 1
   11    11    13 1
   12    11    14 1
   13     9    10 1
   14     9    11 1
   15     9    16 1
   16     7     8 1
   17     7     9 1
   18    26    27 1
   19    26    28 1
   20    22    23 1
   21    22    24 1
   22    22    25 1
   23    20    21 1
   24    20    22 1
   25    20    26 1
   26    18    19 1
   27    18    20 1
   28    33    34 1
   29    33    35 1
   30    30    31 1
   31    30    32 1
   32    30    33 1
   33    28    29 1
   34    28    30 1
   35    37    38 1
   36    37    39 1
   37    37    40 1
   38    35    36 1
   39    35    37 1
@<TRIPOS>SUBSTRUCTURE
      1  ACE              1 ****               0 ****  **** 
      2  SER              7 ****               0 ****  **** 
      3  ALA             18 ****               0 ****  **** 
      4  GLY             28 ****               0 ****  **** 
      5  NME             35 ****               0 ****  **** 
