@<TRIPOS>MOLECULE
default_name
   36    35     5     0     1 
SMALL
USER_CHARGES
@<TRIPOS>ATOM
  1 H1     25.416000   30.191000   22.969000 H     1 ACE     0.1123 ****
  2 CH3    26.389000   30.137000   22.483000 C     1 ACE    -0.3662 ****
  3 H2     26.707000   31.137000   22.193000 H     1 ACE     0.1123 ****
  4 H3     26.319000   29.500000   21.603000 H     1 ACE     0.1123 ****
  5 C      27.388000   29.548000   23.450000 C     1 ACE     0.5972 ****
  6 O      27.035000   29.216000   24.573000 O     1 ACE    -0.5679 ****
  7 N      28.644000   29.436000   23.018000 N     2 GLY    -0.4157 ****
  8 H      28.839000   29.736000   22.076000 H     2 GLY     0.2719 ****
  9 CA     29.749000   28.843000   23.789000 C     2 GLY    -0.0252 ****
 10 HA2    29.355000   28.033000   24.404000 H     2 GLY     0.0698 ****
 11 HA3    30.474000   28.413000   23.097000 H     2 GLY     0.0698 ****
 12 C      30.498000   29.807000   24.721000 C     2 GLY     0.5973 ****
 13 O      31.703000   29.652000   24.882000 O     2 GLY    -0.5679 ****
 14 N      29.816000   30.822000   25.272000 N     3 ALA    -0.4157 ****
 15 H      28.822000   30.828000   25.113000 H     3 ALA     0.2719 ****
 16 CA     30.341000   31.928000   26.092000 C     3 ALA     0.0337 ****
 17 HA     29.463000   32.490000   26.412000 H     3 ALA     0.0823 ****
 18 CB     30.969000   31.387000   27.386000 C     3 ALA    -0.1825 ****
 19 HB1    31.903000   30.869000   27.166000 H     3 ALA     0.0603 ****
 20 HB2    31.181000   32.216000   28.062000 H     3 ALA     0.0603 ****
 21 HB3    30.280000   30.698000   27.876000 H     3 ALA     0.0603 ****
 22 C      31.219000   32.985000   25.376000 C     3 ALA     0.5973 ****
 23 O      31.389000   34.081000   25.908000 O     3 ALA    -0.5679 ****
 24 N      31.740000   32.721000   24.173000 N     4 GLY    -0.4157 ****
 25 H      31.567000   31.825000   23.755000 H     4 GLY     0.2719 ****
 26 CA     32.469000   33.706000   23.370000 C     4 GLY    -0.0252 ****
 27 HA2    33.182000   34.241000   23.998000 H     4 GLY     0.0698 ****
 28 HA3    33.022000   33.193000   22.584000 H     4 GLY     0.0698 ****
 29 C      31.520000   34.709000   22.713000 C     4 GLY     0.5973 ****
 30 O      30.996000   34.439000   21.635000 O     4 GLY    -0.5679 ****
 31 N      31.297000   35.856000   23.364000 N     5 NME    -0.4157 ****
 32 H      31.702000   35.949000   24.286000 H     5 NME     0.2719 ****
 33 CH3    30.429000   36.925000   22.877000 C     5 NME    -0.1490 ****
 34 HH31   29.414000   36.545000   22.749000 H     5 NME     0.0976 ****
 35 HH32   30.416000   37.752000   23.588000 H     5 NME     0.0976 ****
 36 HH33   30.792000   37.284000   21.912000 H     5 NME     0.0976 ****
@<TRIPOS>BOND
    1     5     6 1
    2     5     7 1
    3     2     3 1
    4     2     4 1
    5     2     5 1
    6     1     2 1
    7    12    13 1
    8    12    14 1
    9     9    10 1
   10     9    11 1
   11     9    12 1
   12     7     8 1
   13     7     9 1
   14    22    23 1
   15    22    24 1
   16    18    19 1
   17    18    20 1
   18    18    21 1
   19    16    17 1
   20    16    18 1
   21    16    22 1
   22    14    15 1
   23    14    16 1
   24    29    30 1
   25    29    31 1
   26    26    27 1
   27    26    28 1
   28    26    29 1
   29    24    25 1
   30    24    26 1
   31    33    34 1
   32    33    35 1
   33    33    36 1
   34    31    32 1
   35    31    33 1
@<TRIPOS>SUBSTRUCTURE
      1  ACE              1 ****               0 ****  **** 
      2  GLY              7 ****               0 ****  **** 
      3  ALA             14 ****               0 ****  **** 
      4  GLY             24 ****               0 ****  **** 
      5  NME             31 ****               0 ****  **** 
