@<TRIPOS>MOLECULE
default_name
   36    35     5     0     1 
SMALL
USER_CHARGES
@<TRIPOS>ATOM
  1 H1     25.805000   27.946000   24.176000 H     1 ACE     0.1123 ****
  2 CH3    26.169000   28.513000   23.320000 C     1 ACE    -0.3662 ****
  3 H2     25.567000   29.411000   23.196000 H     1 ACE     0.1123 ****
  4 H3     26.109000   27.898000   22.425000 H     1 ACE     0.1123 ****
  5 C      27.607000   28.902000   23.568000 C     1 ACE     0.5972 ****
  6 O      28.166000   28.576000   24.606000 O     1 ACE    -0.5679 ****
  7 N      28.212000   29.607000   22.612000 N     2 GLY    -0.4157 ****
  8 H      27.679000   29.856000   21.794000 H     2 GLY     0.2719 ****
  9 CA     29.589000   30.099000   22.716000 C     2 GLY    -0.0252 ****
 10 HA2    30.232000   29.309000   23.106000 H     2 GLY     0.0698 ****
 11 HA3    29.948000   30.374000   21.724000 H     2 GLY     0.0698 ****
 12 C      29.699000   31.328000   23.622000 C     2 GLY     0.5973 ****
 13 O      29.590000   32.452000   23.142000 O     2 GLY    -0.5679 ****
 14 N      29.934000   31.124000   24.921000 N     3 ALA    -0.4157 ****
 15 H      29.954000   30.169000   25.249000 H     3 ALA     0.2719 ****
 16 CA     29.970000   32.181000   25.941000 C     3 ALA     0.0337 ****
 17 HA     28.992000   32.666000   25.956000 H     3 ALA     0.0823 ****
 18 CB     30.183000   31.505000   27.302000 C     3 ALA    -0.1825 ****
 19 HB1    31.155000   31.010000   27.329000 H     3 ALA     0.0603 ****
 20 HB2    30.146000   32.257000   28.091000 H     3 ALA     0.0603 ****
 21 HB3    29.396000   30.771000   27.481000 H     3 ALA     0.0603 ****
 22 C      31.011000   33.301000   25.708000 C     3 ALA     0.5973 ****
 23 O      30.870000   34.385000   26.264000 O     3 ALA    -0.5679 ****
 24 N      32.041000   33.062000   24.888000 N     4 GLY    -0.4157 ****
 25 H      32.080000   32.163000   24.440000 H     4 GLY     0.2719 ****
 26 CA     33.092000   34.040000   24.561000 C     4 GLY    -0.0252 ****
 27 HA2    33.383000   34.562000   25.473000 H     4 GLY     0.0698 ****
 28 HA3    33.965000   33.509000   24.185000 H     4 GLY     0.0698 ****
 29 C      32.711000   35.108000   23.523000 C     4 GLY     0.5973 ****
 30 O      33.596000   35.811000   23.043000 O     4 GLY    -0.5679 ****
 31 N      31.432000   35.211000   23.138000 N     5 NME    -0.4157 ****
 32 H      30.761000   34.603000   23.583000 H     5 NME     0.2719 ****
 33 CH3    30.942000   36.165000   22.147000 C     5 NME    -0.1490 ****
 34 HH31   29.892000   35.967000   21.927000 H     5 NME     0.0976 ****
 35 HH32   31.046000   37.181000   22.534000 H     5 NME     0.0976 ****
 36 HH33   31.526000   36.078000   21.229000 H     5 NME     0.0976 ****
@<TRIPOS>BOND
    1     5     6 1
    2     5     7 1
    3     2     3 1
    4     2     4 1
    5     2     5 1
    6     1     2 1
    7    12    13 1
    8    12    14 1
    9     9    10 1
   10     9    11 1
   11     9    12 1
   12     7     8 1
   13     7     9 1
   14    22    23 1
   15    22    24 1
   16    18    19 1
   17    18    20 1
   18    18    21 1
   19    16    17 1
   20    16    18 1
   21    16    22 1
   22    14    15 1
   23    14    16 1
   24    29    30 1
   25    29    31 1
   26    26    27 1
   27    26    28 1
   28    26    29 1
   29    24    25 1
   30    24    26 1
   31    33    34 1
   32    33    35 1
   33    33    36 1
   34    31    32 1
   35    31    33 1
@<TRIPOS>SUBSTRUCTURE
      1  ACE              1 ****               0 ****  **** 
      2  GLY              7 ****               0 ****  **** 
      3  ALA             14 ****               0 ****  **** 
      4  GLY             24 ****               0 ****  **** 
      5  NME             31 ****               0 ****  **** 
