@<TRIPOS>MOLECULE
default_name
   36    35     5     0     1 
SMALL
USER_CHARGES
@<TRIPOS>ATOM
  1 H1     26.270000   32.577000   23.555000 H     1 ACE     0.1123 ****
  2 CH3    26.893000   31.915000   22.955000 C     1 ACE    -0.3662 ****
  3 H2     27.679000   32.493000   22.474000 H     1 ACE     0.1123 ****
  4 H3     26.282000   31.425000   22.200000 H     1 ACE     0.1123 ****
  5 C      27.504000   30.868000   23.855000 C     1 ACE     0.5972 ****
  6 O      27.169000   30.795000   25.029000 O     1 ACE    -0.5679 ****
  7 N      28.414000   30.061000   23.310000 N     2 GLY    -0.4157 ****
  8 H      28.646000   30.212000   22.340000 H     2 GLY     0.2719 ****
  9 CA     28.988000   28.877000   23.976000 C     2 GLY    -0.0252 ****
 10 HA2    28.185000   28.347000   24.491000 H     2 GLY     0.0698 ****
 11 HA3    29.391000   28.208000   23.216000 H     2 GLY     0.0698 ****
 12 C      30.100000   29.126000   25.010000 C     2 GLY     0.5973 ****
 13 O      30.745000   28.163000   25.402000 O     2 GLY    -0.5679 ****
 14 N      30.319000   30.390000   25.400000 N     3 ALA    -0.4157 ****
 15 H      29.632000   31.041000   25.061000 H     3 ALA     0.2719 ****
 16 CA     31.305000   30.963000   26.347000 C     3 ALA     0.0337 ****
 17 HA     30.880000   30.967000   27.351000 H     3 ALA     0.0823 ****
 18 CB     32.621000   30.158000   26.359000 C     3 ALA    -0.1825 ****
 19 HB1    32.997000   30.027000   25.344000 H     3 ALA     0.0603 ****
 20 HB2    33.374000   30.678000   26.952000 H     3 ALA     0.0603 ****
 21 HB3    32.466000   29.184000   26.823000 H     3 ALA     0.0603 ****
 22 C      31.668000   32.426000   25.976000 C     3 ALA     0.5973 ****
 23 O      32.437000   33.078000   26.676000 O     3 ALA    -0.5679 ****
 24 N      31.082000   32.974000   24.906000 N     4 GLY    -0.4157 ****
 25 H      30.496000   32.398000   24.324000 H     4 GLY     0.2719 ****
 26 CA     31.300000   34.341000   24.436000 C     4 GLY    -0.0252 ****
 27 HA2    30.922000   35.044000   25.178000 H     4 GLY     0.0698 ****
 28 HA3    32.369000   34.516000   24.306000 H     4 GLY     0.0698 ****
 29 C      30.591000   34.594000   23.102000 C     4 GLY     0.5973 ****
 30 O      29.962000   33.688000   22.553000 O     4 GLY    -0.5679 ****
 31 N      30.693000   35.823000   22.586000 N     5 NME    -0.4157 ****
 32 H      31.228000   36.509000   23.097000 H     5 NME     0.2719 ****
 33 CH3    30.078000   36.234000   21.325000 C     5 NME    -0.1490 ****
 34 HH31   28.994000   36.115000   21.386000 H     5 NME     0.0976 ****
 35 HH32   30.313000   37.277000   21.111000 H     5 NME     0.0976 ****
 36 HH33   30.451000   35.608000   20.511000 H     5 NME     0.0976 ****
@<TRIPOS>BOND
    1     5     6 1
    2     5     7 1
    3     2     3 1
    4     2     4 1
    5     2     5 1
    6     1     2 1
    7    12    13 1
    8    12    14 1
    9     9    10 1
   10     9    11 1
   11     9    12 1
   12     7     8 1
   13     7     9 1
   14    22    23 1
   15    22    24 1
   16    18    19 1
   17    18    20 1
   18    18    21 1
   19    16    17 1
   20    16    18 1
   21    16    22 1
   22    14    15 1
   23    14    16 1
   24    29    30 1
   25    29    31 1
   26    26    27 1
   27    26    28 1
   28    26    29 1
   29    24    25 1
   30    24    26 1
   31    33    34 1
   32    33    35 1
   33    33    36 1
   34    31    32 1
   35    31    33 1
@<TRIPOS>SUBSTRUCTURE
      1  ACE              1 ****               0 ****  **** 
      2  GLY              7 ****               0 ****  **** 
      3  ALA             14 ****               0 ****  **** 
      4  GLY             24 ****               0 ****  **** 
      5  NME             31 ****               0 ****  **** 
