@<TRIPOS>MOLECULE
default_name
   36    35     5     0     1 
SMALL
USER_CHARGES
@<TRIPOS>ATOM
  1 H1     26.627000   31.623000   22.011000 H     1 ACE     0.1123 ****
  2 CH3    27.716000   31.628000   21.991000 C     1 ACE    -0.3662 ****
  3 H2     28.089000   32.546000   22.441000 H     1 ACE     0.1123 ****
  4 H3     28.067000   31.551000   20.964000 H     1 ACE     0.1123 ****
  5 C      28.229000   30.451000   22.784000 C     1 ACE     0.5972 ****
  6 O      27.448000   29.719000   23.378000 O     1 ACE    -0.5679 ****
  7 N      29.549000   30.286000   22.818000 N     2 GLY    -0.4157 ****
  8 H      30.114000   31.007000   22.380000 H     2 GLY     0.2719 ****
  9 CA     30.251000   29.293000   23.641000 C     2 GLY    -0.0252 ****
 10 HA2    29.608000   28.431000   23.817000 H     2 GLY     0.0698 ****
 11 HA3    31.147000   28.959000   23.118000 H     2 GLY     0.0698 ****
 12 C      30.665000   29.882000   24.991000 C     2 GLY     0.5973 ****
 13 O      31.849000   29.880000   25.312000 O     2 GLY    -0.5679 ****
 14 N      29.701000   30.454000   25.724000 N     3 ALA    -0.4157 ****
 15 H      28.760000   30.300000   25.395000 H     3 ALA     0.2719 ****
 16 CA     29.853000   31.575000   26.663000 C     3 ALA     0.0337 ****
 17 HA     28.856000   31.760000   27.067000 H     3 ALA     0.0823 ****
 18 CB     30.725000   31.204000   27.873000 C     3 ALA    -0.1825 ****
 19 HB1    31.763000   31.060000   27.575000 H     3 ALA     0.0603 ****
 20 HB2    30.681000   32.006000   28.612000 H     3 ALA     0.0603 ****
 21 HB3    30.354000   30.285000   28.327000 H     3 ALA     0.0603 ****
 22 C      30.240000   32.889000   25.952000 C     3 ALA     0.5973 ****
 23 O      29.396000   33.772000   25.813000 O     3 ALA    -0.5679 ****
 24 N      31.469000   33.020000   25.441000 N     4 GLY    -0.4157 ****
 25 H      32.142000   32.290000   25.606000 H     4 GLY     0.2719 ****
 26 CA     31.824000   34.077000   24.491000 C     4 GLY    -0.0252 ****
 27 HA2    31.567000   35.044000   24.924000 H     4 GLY     0.0698 ****
 28 HA3    32.898000   34.058000   24.308000 H     4 GLY     0.0698 ****
 29 C      31.103000   33.922000   23.143000 C     4 GLY     0.5973 ****
 30 O      30.953000   32.811000   22.631000 O     4 GLY    -0.5679 ****
 31 N      30.670000   35.044000   22.557000 N     5 NME    -0.4157 ****
 32 H      30.799000   35.912000   23.053000 H     5 NME     0.2719 ****
 33 CH3    29.968000   35.085000   21.275000 C     5 NME    -0.1490 ****
 34 HH31   29.918000   36.110000   20.906000 H     5 NME     0.0976 ****
 35 HH32   30.493000   34.467000   20.543000 H     5 NME     0.0976 ****
 36 HH33   28.955000   34.699000   21.398000 H     5 NME     0.0976 ****
@<TRIPOS>BOND
    1     5     6 1
    2     5     7 1
    3     2     3 1
    4     2     4 1
    5     2     5 1
    6     1     2 1
    7    12    13 1
    8    12    14 1
    9     9    10 1
   10     9    11 1
   11     9    12 1
   12     7     8 1
   13     7     9 1
   14    22    23 1
   15    22    24 1
   16    18    19 1
   17    18    20 1
   18    18    21 1
   19    16    17 1
   20    16    18 1
   21    16    22 1
   22    14    15 1
   23    14    16 1
   24    29    30 1
   25    29    31 1
   26    26    27 1
   27    26    28 1
   28    26    29 1
   29    24    25 1
   30    24    26 1
   31    33    34 1
   32    33    35 1
   33    33    36 1
   34    31    32 1
   35    31    33 1
@<TRIPOS>SUBSTRUCTURE
      1  ACE              1 ****               0 ****  **** 
      2  GLY              7 ****               0 ****  **** 
      3  ALA             14 ****               0 ****  **** 
      4  GLY             24 ****               0 ****  **** 
      5  NME             31 ****               0 ****  **** 
