@<TRIPOS>MOLECULE
default_name
   36    35     5     0     1 
SMALL
USER_CHARGES
@<TRIPOS>ATOM
  1 H1     24.762000   27.551000   22.627000 H     1 ACE     0.1123 ****
  2 CH3    25.512000   28.339000   22.573000 C     1 ACE    -0.3662 ****
  3 H2     25.030000   29.310000   22.662000 H     1 ACE     0.1123 ****
  4 H3     26.044000   28.273000   21.625000 H     1 ACE     0.1123 ****
  5 C      26.492000   28.162000   23.709000 C     1 ACE     0.5972 ****
  6 O      26.358000   27.238000   24.501000 O     1 ACE    -0.5679 ****
  7 N      27.481000   29.047000   23.787000 N     2 GLY    -0.4157 ****
  8 H      27.539000   29.784000   23.099000 H     2 GLY     0.2719 ****
  9 CA     28.514000   29.033000   24.824000 C     2 GLY    -0.0252 ****
 10 HA2    28.046000   29.175000   25.798000 H     2 GLY     0.0698 ****
 11 HA3    29.015000   28.064000   24.821000 H     2 GLY     0.0698 ****
 12 C      29.562000   30.130000   24.620000 C     2 GLY     0.5973 ****
 13 O      29.488000   30.892000   23.656000 O     2 GLY    -0.5679 ****
 14 N      30.555000   30.181000   25.517000 N     3 ALA    -0.4157 ****
 15 H      30.537000   29.508000   26.265000 H     3 ALA     0.2719 ****
 16 CA     31.538000   31.267000   25.620000 C     3 ALA     0.0337 ****
 17 HA     31.991000   31.213000   26.610000 H     3 ALA     0.0823 ****
 18 CB     32.659000   31.001000   24.596000 C     3 ALA    -0.1825 ****
 19 HB1    33.473000   31.713000   24.735000 H     3 ALA     0.0603 ****
 20 HB2    33.055000   29.995000   24.734000 H     3 ALA     0.0603 ****
 21 HB3    32.269000   31.091000   23.580000 H     3 ALA     0.0603 ****
 22 C      30.887000   32.671000   25.528000 C     3 ALA     0.5973 ****
 23 O      29.875000   32.918000   26.183000 O     3 ALA    -0.5679 ****
 24 N      31.482000   33.609000   24.787000 N     4 GLY    -0.4157 ****
 25 H      32.314000   33.367000   24.267000 H     4 GLY     0.2719 ****
 26 CA     30.972000   34.969000   24.611000 C     4 GLY    -0.0252 ****
 27 HA2    29.979000   34.922000   24.163000 H     4 GLY     0.0698 ****
 28 HA3    30.889000   35.454000   25.583000 H     4 GLY     0.0698 ****
 29 C      31.878000   35.817000   23.713000 C     4 GLY     0.5973 ****
 30 O      32.946000   35.368000   23.302000 O     4 GLY    -0.5679 ****
 31 N      31.446000   37.047000   23.412000 N     5 NME    -0.4157 ****
 32 H      30.557000   37.340000   23.786000 H     5 NME     0.2719 ****
 33 CH3    32.182000   37.986000   22.568000 C     5 NME    -0.1490 ****
 34 HH31   31.629000   38.922000   22.471000 H     5 NME     0.0976 ****
 35 HH32   33.160000   38.190000   23.009000 H     5 NME     0.0976 ****
 36 HH33   32.332000   37.552000   21.578000 H     5 NME     0.0976 ****
@<TRIPOS>BOND
    1     5     6 1
    2     5     7 1
    3     2     3 1
    4     2     4 1
    5     2     5 1
    6     1     2 1
    7    12    13 1
    8    12    14 1
    9     9    10 1
   10     9    11 1
   11     9    12 1
   12     7     8 1
   13     7     9 1
   14    22    23 1
   15    22    24 1
   16    18    19 1
   17    18    20 1
   18    18    21 1
   19    16    17 1
   20    16    18 1
   21    16    22 1
   22    14    15 1
   23    14    16 1
   24    29    30 1
   25    29    31 1
   26    26    27 1
   27    26    28 1
   28    26    29 1
   29    24    25 1
   30    24    26 1
   31    33    34 1
   32    33    35 1
   33    33    36 1
   34    31    32 1
   35    31    33 1
@<TRIPOS>SUBSTRUCTURE
      1  ACE              1 ****               0 ****  **** 
      2  GLY              7 ****               0 ****  **** 
      3  ALA             14 ****               0 ****  **** 
      4  GLY             24 ****               0 ****  **** 
      5  NME             31 ****               0 ****  **** 
