@<TRIPOS>MOLECULE
default_name
   36    35     5     0     1 
SMALL
USER_CHARGES
@<TRIPOS>ATOM
  1 H1     25.392000   28.227000   23.991000 H     1 ACE     0.1123 ****
  2 CH3    26.216000   28.298000   23.281000 C     1 ACE    -0.3662 ****
  3 H2     26.064000   29.159000   22.633000 H     1 ACE     0.1123 ****
  4 H3     26.259000   27.387000   22.688000 H     1 ACE     0.1123 ****
  5 C      27.508000   28.460000   24.047000 C     1 ACE     0.5972 ****
  6 O      27.498000   28.492000   25.268000 O     1 ACE    -0.5679 ****
  7 N      28.619000   28.583000   23.322000 N     2 GLY    -0.4157 ****
  8 H      28.529000   28.540000   22.320000 H     2 GLY     0.2719 ****
  9 CA     29.980000   28.660000   23.880000 C     2 GLY    -0.0252 ****
 10 HA2    30.050000   27.967000   24.720000 H     2 GLY     0.0698 ****
 11 HA3    30.692000   28.333000   23.122000 H     2 GLY     0.0698 ****
 12 C      30.436000   30.037000   24.389000 C     2 GLY     0.5973 ****
 13 O      31.637000   30.274000   24.434000 O     2 GLY    -0.5679 ****
 14 N      29.508000   30.950000   24.703000 N     3 ALA    -0.4157 ****
 15 H      28.550000   30.645000   24.665000 H     3 ALA     0.2719 ****
 16 CA     29.742000   32.286000   25.272000 C     3 ALA     0.0337 ****
 17 HA     28.849000   32.882000   25.079000 H     3 ALA     0.0823 ****
 18 CB     29.860000   32.139000   26.798000 C     3 ALA    -0.1825 ****
 19 HB1    30.751000   31.560000   27.046000 H     3 ALA     0.0603 ****
 20 HB2    29.940000   33.124000   27.258000 H     3 ALA     0.0603 ****
 21 HB3    28.980000   31.632000   27.196000 H     3 ALA     0.0603 ****
 22 C      30.921000   33.066000   24.639000 C     3 ALA     0.5973 ****
 23 O      31.850000   33.503000   25.318000 O     3 ALA    -0.5679 ****
 24 N      30.841000   33.310000   23.326000 N     4 GLY    -0.4157 ****
 25 H      30.051000   32.948000   22.819000 H     4 GLY     0.2719 ****
 26 CA     31.838000   34.085000   22.583000 C     4 GLY    -0.0252 ****
 27 HA2    32.840000   33.784000   22.892000 H     4 GLY     0.0698 ****
 28 HA3    31.735000   33.880000   21.518000 H     4 GLY     0.0698 ****
 29 C      31.677000   35.591000   22.797000 C     4 GLY     0.5973 ****
 30 O      30.919000   36.231000   22.072000 O     4 GLY    -0.5679 ****
 31 N      32.389000   36.151000   23.781000 N     5 NME    -0.4157 ****
 32 H      32.930000   35.534000   24.371000 H     5 NME     0.2719 ****
 33 CH3    32.358000   37.574000   24.112000 C     5 NME    -0.1490 ****
 34 HH31   31.338000   37.868000   24.369000 H     5 NME     0.0976 ****
 35 HH32   33.015000   37.776000   24.959000 H     5 NME     0.0976 ****
 36 HH33   32.685000   38.160000   23.252000 H     5 NME     0.0976 ****
@<TRIPOS>BOND
    1     5     6 1
    2     5     7 1
    3     2     3 1
    4     2     4 1
    5     2     5 1
    6     1     2 1
    7    12    13 1
    8    12    14 1
    9     9    10 1
   10     9    11 1
   11     9    12 1
   12     7     8 1
   13     7     9 1
   14    22    23 1
   15    22    24 1
   16    18    19 1
   17    18    20 1
   18    18    21 1
   19    16    17 1
   20    16    18 1
   21    16    22 1
   22    14    15 1
   23    14    16 1
   24    29    30 1
   25    29    31 1
   26    26    27 1
   27    26    28 1
   28    26    29 1
   29    24    25 1
   30    24    26 1
   31    33    34 1
   32    33    35 1
   33    33    36 1
   34    31    32 1
   35    31    33 1
@<TRIPOS>SUBSTRUCTURE
      1  ACE              1 ****               0 ****  **** 
      2  GLY              7 ****               0 ****  **** 
      3  ALA             14 ****               0 ****  **** 
      4  GLY             24 ****               0 ****  **** 
      5  NME             31 ****               0 ****  **** 
