@<TRIPOS>MOLECULE
default_name
   36    35     5     0     1 
SMALL
USER_CHARGES
@<TRIPOS>ATOM
  1 H1     27.435000   25.590000   23.334000 H     1 ACE     0.1123 ****
  2 CH3    26.938000   26.229000   22.606000 C     1 ACE    -0.3662 ****
  3 H2     25.997000   25.774000   22.301000 H     1 ACE     0.1123 ****
  4 H3     27.576000   26.368000   21.736000 H     1 ACE     0.1123 ****
  5 C      26.651000   27.572000   23.235000 C     1 ACE     0.5972 ****
  6 O      25.499000   27.976000   23.331000 O     1 ACE    -0.5679 ****
  7 N      27.701000   28.266000   23.665000 N     2 GLY    -0.4157 ****
  8 H      28.627000   27.878000   23.559000 H     2 GLY     0.2719 ****
  9 CA     27.611000   29.585000   24.293000 C     2 GLY    -0.0252 ****
 10 HA2    27.159000   30.285000   23.590000 H     2 GLY     0.0698 ****
 11 HA3    26.973000   29.522000   25.175000 H     2 GLY     0.0698 ****
 12 C      28.980000   30.127000   24.713000 C     2 GLY     0.5973 ****
 13 O      29.985000   29.435000   24.565000 O     2 GLY    -0.5679 ****
 14 N      28.985000   31.353000   25.251000 N     3 ALA    -0.4157 ****
 15 H      28.093000   31.810000   25.336000 H     3 ALA     0.2719 ****
 16 CA     30.170000   32.153000   25.598000 C     3 ALA     0.0337 ****
 17 HA     29.774000   32.999000   26.160000 H     3 ALA     0.0823 ****
 18 CB     31.101000   31.432000   26.585000 C     3 ALA    -0.1825 ****
 19 HB1    31.636000   30.627000   26.079000 H     3 ALA     0.0603 ****
 20 HB2    31.833000   32.137000   26.980000 H     3 ALA     0.0603 ****
 21 HB3    30.523000   31.017000   27.411000 H     3 ALA     0.0603 ****
 22 C      30.884000   32.781000   24.380000 C     3 ALA     0.5973 ****
 23 O      31.071000   32.150000   23.344000 O     3 ALA    -0.5679 ****
 24 N      31.245000   34.062000   24.488000 N     4 GLY    -0.4157 ****
 25 H      31.071000   34.558000   25.351000 H     4 GLY     0.2719 ****
 26 CA     31.913000   34.819000   23.428000 C     4 GLY    -0.0252 ****
 27 HA2    32.860000   34.336000   23.183000 H     4 GLY     0.0698 ****
 28 HA3    31.288000   34.821000   22.535000 H     4 GLY     0.0698 ****
 29 C      32.190000   36.267000   23.839000 C     4 GLY     0.5973 ****
 30 O      31.833000   36.679000   24.942000 O     4 GLY    -0.5679 ****
 31 N      32.827000   37.037000   22.949000 N     5 NME    -0.4157 ****
 32 H      33.087000   36.625000   22.066000 H     5 NME     0.2719 ****
 33 CH3    33.169000   38.439000   23.180000 C     5 NME    -0.1490 ****
 34 HH31   33.818000   38.521000   24.054000 H     5 NME     0.0976 ****
 35 HH32   33.683000   38.853000   22.311000 H     5 NME     0.0976 ****
 36 HH33   32.260000   39.015000   23.368000 H     5 NME     0.0976 ****
@<TRIPOS>BOND
    1     5     6 1
    2     5     7 1
    3     2     3 1
    4     2     4 1
    5     2     5 1
    6     1     2 1
    7    12    13 1
    8    12    14 1
    9     9    10 1
   10     9    11 1
   11     9    12 1
   12     7     8 1
   13     7     9 1
   14    22    23 1
   15    22    24 1
   16    18    19 1
   17    18    20 1
   18    18    21 1
   19    16    17 1
   20    16    18 1
   21    16    22 1
   22    14    15 1
   23    14    16 1
   24    29    30 1
   25    29    31 1
   26    26    27 1
   27    26    28 1
   28    26    29 1
   29    24    25 1
   30    24    26 1
   31    33    34 1
   32    33    35 1
   33    33    36 1
   34    31    32 1
   35    31    33 1
@<TRIPOS>SUBSTRUCTURE
      1  ACE              1 ****               0 ****  **** 
      2  GLY              7 ****               0 ****  **** 
      3  ALA             14 ****               0 ****  **** 
      4  GLY             24 ****               0 ****  **** 
      5  NME             31 ****               0 ****  **** 
