@<TRIPOS>MOLECULE
default_name
   36    35     5     0     1 
SMALL
USER_CHARGES
@<TRIPOS>ATOM
  1 H1     26.390000   27.138000   21.297000 H     1 ACE     0.1123 ****
  2 CH3    26.423000   28.113000   21.780000 C     1 ACE    -0.3662 ****
  3 H2     25.568000   28.220000   22.446000 H     1 ACE     0.1123 ****
  4 H3     26.406000   28.896000   21.025000 H     1 ACE     0.1123 ****
  5 C      27.698000   28.219000   22.583000 C     1 ACE     0.5972 ****
  6 O      28.492000   27.288000   22.607000 O     1 ACE    -0.5679 ****
  7 N      27.897000   29.356000   23.244000 N     2 GLY    -0.4157 ****
  8 H      27.201000   30.086000   23.188000 H     2 GLY     0.2719 ****
  9 CA     29.079000   29.627000   24.063000 C     2 GLY    -0.0252 ****
 10 HA2    29.169000   28.855000   24.828000 H     2 GLY     0.0698 ****
 11 HA3    29.967000   29.589000   23.432000 H     2 GLY     0.0698 ****
 12 C      29.018000   30.994000   24.749000 C     2 GLY     0.5973 ****
 13 O      28.049000   31.731000   24.589000 O     2 GLY    -0.5679 ****
 14 N      30.066000   31.331000   25.506000 N     3 ALA    -0.4157 ****
 15 H      30.802000   30.653000   25.617000 H     3 ALA     0.2719 ****
 16 CA     30.135000   32.554000   26.318000 C     3 ALA     0.0337 ****
 17 HA     29.140000   33.000000   26.388000 H     3 ALA     0.0823 ****
 18 CB     30.568000   32.158000   27.735000 C     3 ALA    -0.1825 ****
 19 HB1    31.566000   31.719000   27.719000 H     3 ALA     0.0603 ****
 20 HB2    30.582000   33.045000   28.371000 H     3 ALA     0.0603 ****
 21 HB3    29.861000   31.441000   28.153000 H     3 ALA     0.0603 ****
 22 C      31.063000   33.636000   25.728000 C     3 ALA     0.5973 ****
 23 O      30.826000   34.825000   25.926000 O     3 ALA    -0.5679 ****
 24 N      32.126000   33.242000   25.015000 N     4 GLY    -0.4157 ****
 25 H      32.258000   32.258000   24.857000 H     4 GLY     0.2719 ****
 26 CA     33.027000   34.169000   24.323000 C     4 GLY    -0.0252 ****
 27 HA2    33.230000   35.034000   24.956000 H     4 GLY     0.0698 ****
 28 HA3    33.972000   33.668000   24.116000 H     4 GLY     0.0698 ****
 29 C      32.440000   34.648000   22.994000 C     4 GLY     0.5973 ****
 30 O      32.686000   34.026000   21.965000 O     4 GLY    -0.5679 ****
 31 N      31.667000   35.739000   23.020000 N     5 NME    -0.4157 ****
 32 H      31.469000   36.150000   23.922000 H     5 NME     0.2719 ****
 33 CH3    31.023000   36.316000   21.842000 C     5 NME    -0.1490 ****
 34 HH31   30.340000   35.587000   21.402000 H     5 NME     0.0976 ****
 35 HH32   30.464000   37.211000   22.120000 H     5 NME     0.0976 ****
 36 HH33   31.779000   36.579000   21.100000 H     5 NME     0.0976 ****
@<TRIPOS>BOND
    1     5     6 1
    2     5     7 1
    3     2     3 1
    4     2     4 1
    5     2     5 1
    6     1     2 1
    7    12    13 1
    8    12    14 1
    9     9    10 1
   10     9    11 1
   11     9    12 1
   12     7     8 1
   13     7     9 1
   14    22    23 1
   15    22    24 1
   16    18    19 1
   17    18    20 1
   18    18    21 1
   19    16    17 1
   20    16    18 1
   21    16    22 1
   22    14    15 1
   23    14    16 1
   24    29    30 1
   25    29    31 1
   26    26    27 1
   27    26    28 1
   28    26    29 1
   29    24    25 1
   30    24    26 1
   31    33    34 1
   32    33    35 1
   33    33    36 1
   34    31    32 1
   35    31    33 1
@<TRIPOS>SUBSTRUCTURE
      1  ACE              1 ****               0 ****  **** 
      2  GLY              7 ****               0 ****  **** 
      3  ALA             14 ****               0 ****  **** 
      4  GLY             24 ****               0 ****  **** 
      5  NME             31 ****               0 ****  **** 
