@<TRIPOS>MOLECULE
default_name
   36    35     5     0     1 
SMALL
USER_CHARGES
@<TRIPOS>ATOM
  1 H1     27.243000   28.364000   21.257000 H     1 ACE     0.1123 ****
  2 CH3    27.403000   29.334000   21.723000 C     1 ACE    -0.3662 ****
  3 H2     26.563000   29.991000   21.503000 H     1 ACE     0.1123 ****
  4 H3     28.323000   29.782000   21.350000 H     1 ACE     0.1123 ****
  5 C      27.512000   29.162000   23.219000 C     1 ACE     0.5972 ****
  6 O      26.739000   29.752000   23.965000 O     1 ACE    -0.5679 ****
  7 N      28.475000   28.354000   23.658000 N     2 GLY    -0.4157 ****
  8 H      29.092000   27.944000   22.975000 H     2 GLY     0.2719 ****
  9 CA     28.831000   28.197000   25.071000 C     2 GLY    -0.0252 ****
 10 HA2    27.932000   28.202000   25.688000 H     2 GLY     0.0698 ****
 11 HA3    29.346000   27.247000   25.214000 H     2 GLY     0.0698 ****
 12 C      29.761000   29.322000   25.527000 C     2 GLY     0.5973 ****
 13 O      30.973000   29.131000   25.544000 O     2 GLY    -0.5679 ****
 14 N      29.183000   30.479000   25.873000 N     3 ALA    -0.4157 ****
 15 H      28.176000   30.505000   25.832000 H     3 ALA     0.2719 ****
 16 CA     29.863000   31.778000   25.942000 C     3 ALA     0.0337 ****
 17 HA     29.092000   32.502000   26.210000 H     3 ALA     0.0823 ****
 18 CB     30.884000   31.808000   27.092000 C     3 ALA    -0.1825 ****
 19 HB1    31.745000   31.185000   26.850000 H     3 ALA     0.0603 ****
 20 HB2    31.230000   32.829000   27.256000 H     3 ALA     0.0603 ****
 21 HB3    30.422000   31.441000   28.009000 H     3 ALA     0.0603 ****
 22 C      30.421000   32.265000   24.582000 C     3 ALA     0.5973 ****
 23 O      30.487000   31.530000   23.597000 O     3 ALA    -0.5679 ****
 24 N      30.753000   33.556000   24.504000 N     4 GLY    -0.4157 ****
 25 H      30.671000   34.138000   25.326000 H     4 GLY     0.2719 ****
 26 CA     31.270000   34.202000   23.297000 C     4 GLY    -0.0252 ****
 27 HA2    32.183000   33.696000   22.981000 H     4 GLY     0.0698 ****
 28 HA3    30.535000   34.115000   22.497000 H     4 GLY     0.0698 ****
 29 C      31.581000   35.685000   23.520000 C     4 GLY     0.5973 ****
 30 O      31.362000   36.209000   24.611000 O     4 GLY    -0.5679 ****
 31 N      32.093000   36.357000   22.483000 N     5 NME    -0.4157 ****
 32 H      32.245000   35.854000   21.622000 H     5 NME     0.2719 ****
 33 CH3    32.448000   37.774000   22.524000 C     5 NME    -0.1490 ****
 34 HH31   31.564000   38.368000   22.766000 H     5 NME     0.0976 ****
 35 HH32   33.201000   37.943000   23.296000 H     5 NME     0.0976 ****
 36 HH33   32.843000   38.095000   21.559000 H     5 NME     0.0976 ****
@<TRIPOS>BOND
    1     5     6 1
    2     5     7 1
    3     2     3 1
    4     2     4 1
    5     2     5 1
    6     1     2 1
    7    12    13 1
    8    12    14 1
    9     9    10 1
   10     9    11 1
   11     9    12 1
   12     7     8 1
   13     7     9 1
   14    22    23 1
   15    22    24 1
   16    18    19 1
   17    18    20 1
   18    18    21 1
   19    16    17 1
   20    16    18 1
   21    16    22 1
   22    14    15 1
   23    14    16 1
   24    29    30 1
   25    29    31 1
   26    26    27 1
   27    26    28 1
   28    26    29 1
   29    24    25 1
   30    24    26 1
   31    33    34 1
   32    33    35 1
   33    33    36 1
   34    31    32 1
   35    31    33 1
@<TRIPOS>SUBSTRUCTURE
      1  ACE              1 ****               0 ****  **** 
      2  GLY              7 ****               0 ****  **** 
      3  ALA             14 ****               0 ****  **** 
      4  GLY             24 ****               0 ****  **** 
      5  NME             31 ****               0 ****  **** 
