@<TRIPOS>MOLECULE
default_name
   36    35     5     0     1 
SMALL
USER_CHARGES
@<TRIPOS>ATOM
  1 H1     25.453000   28.273000   24.494000 H     1 ACE     0.1123 ****
  2 CH3    26.148000   28.332000   23.657000 C     1 ACE    -0.3662 ****
  3 H2     25.900000   29.192000   23.039000 H     1 ACE     0.1123 ****
  4 H3     26.082000   27.418000   23.068000 H     1 ACE     0.1123 ****
  5 C      27.551000   28.480000   24.196000 C     1 ACE     0.5972 ****
  6 O      27.747000   28.521000   25.401000 O     1 ACE    -0.5679 ****
  7 N      28.530000   28.587000   23.297000 N     2 GLY    -0.4157 ****
  8 H      28.277000   28.544000   22.323000 H     2 GLY     0.2719 ****
  9 CA     29.963000   28.651000   23.630000 C     2 GLY    -0.0252 ****
 10 HA2    30.171000   27.913000   24.406000 H     2 GLY     0.0698 ****
 11 HA3    30.543000   28.379000   22.749000 H     2 GLY     0.0698 ****
 12 C      30.488000   30.004000   24.139000 C     2 GLY     0.5973 ****
 13 O      31.691000   30.234000   24.067000 O     2 GLY    -0.5679 ****
 14 N      29.610000   30.931000   24.540000 N     3 ALA    -0.4157 ****
 15 H      28.641000   30.656000   24.513000 H     3 ALA     0.2719 ****
 16 CA     29.891000   32.178000   25.268000 C     3 ALA     0.0337 ****
 17 HA     29.001000   32.342000   25.878000 H     3 ALA     0.0823 ****
 18 CB     31.033000   32.070000   26.294000 C     3 ALA    -0.1825 ****
 19 HB1    32.001000   32.037000   25.795000 H     3 ALA     0.0603 ****
 20 HB2    31.012000   32.942000   26.949000 H     3 ALA     0.0603 ****
 21 HB3    30.905000   31.172000   26.900000 H     3 ALA     0.0603 ****
 22 C      29.933000   33.405000   24.347000 C     3 ALA     0.5973 ****
 23 O      29.139000   34.327000   24.496000 O     3 ALA    -0.5679 ****
 24 N      30.872000   33.410000   23.395000 N     4 GLY    -0.4157 ****
 25 H      31.491000   32.612000   23.356000 H     4 GLY     0.2719 ****
 26 CA     31.034000   34.454000   22.370000 C     4 GLY    -0.0252 ****
 27 HA2    31.602000   34.043000   21.536000 H     4 GLY     0.0698 ****
 28 HA3    30.048000   34.734000   21.999000 H     4 GLY     0.0698 ****
 29 C      31.735000   35.746000   22.820000 C     4 GLY     0.5973 ****
 30 O      32.222000   36.484000   21.969000 O     4 GLY    -0.5679 ****
 31 N      31.837000   36.008000   24.130000 N     5 NME    -0.4157 ****
 32 H      31.376000   35.378000   24.766000 H     5 NME     0.2719 ****
 33 CH3    32.503000   37.185000   24.684000 C     5 NME    -0.1490 ****
 34 HH31   32.019000   38.089000   24.309000 H     5 NME     0.0976 ****
 35 HH32   32.448000   37.172000   25.773000 H     5 NME     0.0976 ****
 36 HH33   33.550000   37.196000   24.374000 H     5 NME     0.0976 ****
@<TRIPOS>BOND
    1     5     6 1
    2     5     7 1
    3     2     3 1
    4     2     4 1
    5     2     5 1
    6     1     2 1
    7    12    13 1
    8    12    14 1
    9     9    10 1
   10     9    11 1
   11     9    12 1
   12     7     8 1
   13     7     9 1
   14    22    23 1
   15    22    24 1
   16    18    19 1
   17    18    20 1
   18    18    21 1
   19    16    17 1
   20    16    18 1
   21    16    22 1
   22    14    15 1
   23    14    16 1
   24    29    30 1
   25    29    31 1
   26    26    27 1
   27    26    28 1
   28    26    29 1
   29    24    25 1
   30    24    26 1
   31    33    34 1
   32    33    35 1
   33    33    36 1
   34    31    32 1
   35    31    33 1
@<TRIPOS>SUBSTRUCTURE
      1  ACE              1 ****               0 ****  **** 
      2  GLY              7 ****               0 ****  **** 
      3  ALA             14 ****               0 ****  **** 
      4  GLY             24 ****               0 ****  **** 
      5  NME             31 ****               0 ****  **** 
