@<TRIPOS>MOLECULE
default_name
   36    35     5     0     1 
SMALL
USER_CHARGES
@<TRIPOS>ATOM
  1 H1     26.735000   25.249000   24.059000 H     1 ACE     0.1123 ****
  2 CH3    26.350000   26.238000   23.818000 C     1 ACE    -0.3662 ****
  3 H2     25.354000   26.358000   24.236000 H     1 ACE     0.1123 ****
  4 H3     26.324000   26.361000   22.737000 H     1 ACE     0.1123 ****
  5 C      27.273000   27.276000   24.412000 C     1 ACE     0.5972 ****
  6 O      28.228000   26.929000   25.094000 O     1 ACE    -0.5679 ****
  7 N      26.980000   28.551000   24.153000 N     2 GLY    -0.4157 ****
  8 H      26.203000   28.734000   23.542000 H     2 GLY     0.2719 ****
  9 CA     27.892000   29.664000   24.448000 C     2 GLY    -0.0252 ****
 10 HA2    27.323000   30.557000   24.698000 H     2 GLY     0.0698 ****
 11 HA3    28.500000   29.382000   25.305000 H     2 GLY     0.0698 ****
 12 C      28.839000   29.981000   23.276000 C     2 GLY     0.5973 ****
 13 O      28.700000   29.372000   22.215000 O     2 GLY    -0.5679 ****
 14 N      29.784000   30.932000   23.391000 N     3 ALA    -0.4157 ****
 15 H      30.465000   30.980000   22.640000 H     3 ALA     0.2719 ****
 16 CA     30.023000   31.956000   24.424000 C     3 ALA     0.0337 ****
 17 HA     29.168000   32.631000   24.484000 H     3 ALA     0.0823 ****
 18 CB     30.298000   31.349000   25.811000 C     3 ALA    -0.1825 ****
 19 HB1    30.990000   30.508000   25.726000 H     3 ALA     0.0603 ****
 20 HB2    30.744000   32.105000   26.460000 H     3 ALA     0.0603 ****
 21 HB3    29.372000   31.027000   26.285000 H     3 ALA     0.0603 ****
 22 C      31.270000   32.761000   23.996000 C     3 ALA     0.5973 ****
 23 O      32.261000   32.172000   23.568000 O     3 ALA    -0.5679 ****
 24 N      31.236000   34.095000   24.075000 N     4 GLY    -0.4157 ****
 25 H      30.412000   34.568000   24.418000 H     4 GLY     0.2719 ****
 26 CA     32.377000   34.931000   23.686000 C     4 GLY    -0.0252 ****
 27 HA2    33.258000   34.608000   24.241000 H     4 GLY     0.0698 ****
 28 HA3    32.579000   34.790000   22.624000 H     4 GLY     0.0698 ****
 29 C      32.164000   36.423000   23.942000 C     4 GLY     0.5973 ****
 30 O      31.073000   36.839000   24.330000 O     4 GLY    -0.5679 ****
 31 N      33.221000   37.214000   23.719000 N     5 NME    -0.4157 ****
 32 H      34.072000   36.774000   23.404000 H     5 NME     0.2719 ****
 33 CH3    33.240000   38.666000   23.893000 C     5 NME    -0.1490 ****
 34 HH31   32.348000   39.003000   24.426000 H     5 NME     0.0976 ****
 35 HH32   34.121000   38.959000   24.468000 H     5 NME     0.0976 ****
 36 HH33   33.271000   39.156000   22.919000 H     5 NME     0.0976 ****
@<TRIPOS>BOND
    1     5     6 1
    2     5     7 1
    3     2     3 1
    4     2     4 1
    5     2     5 1
    6     1     2 1
    7    12    13 1
    8    12    14 1
    9     9    10 1
   10     9    11 1
   11     9    12 1
   12     7     8 1
   13     7     9 1
   14    22    23 1
   15    22    24 1
   16    18    19 1
   17    18    20 1
   18    18    21 1
   19    16    17 1
   20    16    18 1
   21    16    22 1
   22    14    15 1
   23    14    16 1
   24    29    30 1
   25    29    31 1
   26    26    27 1
   27    26    28 1
   28    26    29 1
   29    24    25 1
   30    24    26 1
   31    33    34 1
   32    33    35 1
   33    33    36 1
   34    31    32 1
   35    31    33 1
@<TRIPOS>SUBSTRUCTURE
      1  ACE              1 ****               0 ****  **** 
      2  GLY              7 ****               0 ****  **** 
      3  ALA             14 ****               0 ****  **** 
      4  GLY             24 ****               0 ****  **** 
      5  NME             31 ****               0 ****  **** 
