@<TRIPOS>MOLECULE
default_name
   36    35     5     0     1 
SMALL
USER_CHARGES
@<TRIPOS>ATOM
  1 H1     26.019000   25.195000   22.867000 H     1 ACE     0.1123 ****
  2 CH3    25.983000   26.275000   23.009000 C     1 ACE    -0.3662 ****
  3 H2     25.247000   26.520000   23.772000 H     1 ACE     0.1123 ****
  4 H3     25.722000   26.759000   22.070000 H     1 ACE     0.1123 ****
  5 C      27.345000   26.754000   23.455000 C     1 ACE     0.5972 ****
  6 O      28.262000   25.957000   23.599000 O     1 ACE    -0.5679 ****
  7 N      27.474000   28.059000   23.677000 N     2 GLY    -0.4157 ****
  8 H      26.675000   28.662000   23.544000 H     2 GLY     0.2719 ****
  9 CA     28.718000   28.699000   24.109000 C     2 GLY    -0.0252 ****
 10 HA2    29.062000   28.231000   25.032000 H     2 GLY     0.0698 ****
 11 HA3    29.482000   28.552000   23.345000 H     2 GLY     0.0698 ****
 12 C      28.550000   30.201000   24.351000 C     2 GLY     0.5973 ****
 13 O      27.462000   30.746000   24.168000 O     2 GLY    -0.5679 ****
 14 N      29.630000   30.863000   24.772000 N     3 ALA    -0.4157 ****
 15 H      30.497000   30.355000   24.839000 H     3 ALA     0.2719 ****
 16 CA     29.703000   32.320000   24.920000 C     3 ALA     0.0337 ****
 17 HA     28.751000   32.770000   24.633000 H     3 ALA     0.0823 ****
 18 CB     29.932000   32.615000   26.412000 C     3 ALA    -0.1825 ****
 19 HB1    30.905000   32.233000   26.726000 H     3 ALA     0.0603 ****
 20 HB2    29.890000   33.688000   26.598000 H     3 ALA     0.0603 ****
 21 HB3    29.151000   32.135000   27.005000 H     3 ALA     0.0603 ****
 22 C      30.786000   32.926000   23.998000 C     3 ALA     0.5973 ****
 23 O      31.300000   32.255000   23.105000 O     3 ALA    -0.5679 ****
 24 N      31.178000   34.179000   24.239000 N     4 GLY    -0.4157 ****
 25 H      30.749000   34.692000   24.997000 H     4 GLY     0.2719 ****
 26 CA     32.209000   34.885000   23.476000 C     4 GLY    -0.0252 ****
 27 HA2    33.140000   34.321000   23.517000 H     4 GLY     0.0698 ****
 28 HA3    31.897000   34.959000   22.433000 H     4 GLY     0.0698 ****
 29 C      32.464000   36.295000   24.015000 C     4 GLY     0.5973 ****
 30 O      31.849000   36.705000   24.998000 O     4 GLY    -0.5679 ****
 31 N      33.373000   37.034000   23.368000 N     5 NME    -0.4157 ****
 32 H      33.834000   36.627000   22.570000 H     5 NME     0.2719 ****
 33 CH3    33.735000   38.398000   23.750000 C     5 NME    -0.1490 ****
 34 HH31   32.852000   39.039000   23.709000 H     5 NME     0.0976 ****
 35 HH32   34.122000   38.405000   24.771000 H     5 NME     0.0976 ****
 36 HH33   34.496000   38.792000   23.074000 H     5 NME     0.0976 ****
@<TRIPOS>BOND
    1     5     6 1
    2     5     7 1
    3     2     3 1
    4     2     4 1
    5     2     5 1
    6     1     2 1
    7    12    13 1
    8    12    14 1
    9     9    10 1
   10     9    11 1
   11     9    12 1
   12     7     8 1
   13     7     9 1
   14    22    23 1
   15    22    24 1
   16    18    19 1
   17    18    20 1
   18    18    21 1
   19    16    17 1
   20    16    18 1
   21    16    22 1
   22    14    15 1
   23    14    16 1
   24    29    30 1
   25    29    31 1
   26    26    27 1
   27    26    28 1
   28    26    29 1
   29    24    25 1
   30    24    26 1
   31    33    34 1
   32    33    35 1
   33    33    36 1
   34    31    32 1
   35    31    33 1
@<TRIPOS>SUBSTRUCTURE
      1  ACE              1 ****               0 ****  **** 
      2  GLY              7 ****               0 ****  **** 
      3  ALA             14 ****               0 ****  **** 
      4  GLY             24 ****               0 ****  **** 
      5  NME             31 ****               0 ****  **** 
