@<TRIPOS>MOLECULE
default_name
   36    35     5     0     1 
SMALL
USER_CHARGES
@<TRIPOS>ATOM
  1 H1     25.978000   25.452000   23.421000 H     1 ACE     0.1123 ****
  2 CH3    26.075000   26.387000   23.971000 C     1 ACE    -0.3662 ****
  3 H2     26.271000   26.176000   25.020000 H     1 ACE     0.1123 ****
  4 H3     25.158000   26.965000   23.873000 H     1 ACE     0.1123 ****
  5 C      27.227000   27.177000   23.395000 C     1 ACE     0.5972 ****
  6 O      27.875000   26.730000   22.458000 O     1 ACE    -0.5679 ****
  7 N      27.485000   28.354000   23.957000 N     2 GLY    -0.4157 ****
  8 H      26.915000   28.666000   24.731000 H     2 GLY     0.2719 ****
  9 CA     28.559000   29.249000   23.524000 C     2 GLY    -0.0252 ****
 10 HA2    29.510000   28.717000   23.572000 H     2 GLY     0.0698 ****
 11 HA3    28.384000   29.544000   22.489000 H     2 GLY     0.0698 ****
 12 C      28.657000   30.510000   24.386000 C     2 GLY     0.5973 ****
 13 O      27.874000   30.692000   25.315000 O     2 GLY    -0.5679 ****
 14 N      29.621000   31.379000   24.065000 N     3 ALA    -0.4157 ****
 15 H      30.188000   31.170000   23.258000 H     3 ALA     0.2719 ****
 16 CA     29.876000   32.646000   24.759000 C     3 ALA     0.0337 ****
 17 HA     28.929000   33.178000   24.873000 H     3 ALA     0.0823 ****
 18 CB     30.443000   32.375000   26.167000 C     3 ALA    -0.1825 ****
 19 HB1    31.331000   31.744000   26.113000 H     3 ALA     0.0603 ****
 20 HB2    30.694000   33.319000   26.652000 H     3 ALA     0.0603 ****
 21 HB3    29.694000   31.870000   26.778000 H     3 ALA     0.0603 ****
 22 C      30.799000   33.547000   23.913000 C     3 ALA     0.5973 ****
 23 O      30.317000   34.279000   23.052000 O     3 ALA    -0.5679 ****
 24 N      32.121000   33.482000   24.113000 N     4 GLY    -0.4157 ****
 25 H      32.462000   32.885000   24.851000 H     4 GLY     0.2719 ****
 26 CA     33.093000   34.328000   23.415000 C     4 GLY    -0.0252 ****
 27 HA2    34.087000   33.892000   23.511000 H     4 GLY     0.0698 ****
 28 HA3    32.845000   34.381000   22.354000 H     4 GLY     0.0698 ****
 29 C      33.139000   35.746000   23.989000 C     4 GLY     0.5973 ****
 30 O      33.908000   36.003000   24.910000 O     4 GLY    -0.5679 ****
 31 N      32.321000   36.656000   23.448000 N     5 NME    -0.4157 ****
 32 H      31.676000   36.340000   22.737000 H     5 NME     0.2719 ****
 33 CH3    32.246000   38.050000   23.878000 C     5 NME    -0.1490 ****
 34 HH31   31.496000   38.585000   23.294000 H     5 NME     0.0976 ****
 35 HH32   31.978000   38.095000   24.935000 H     5 NME     0.0976 ****
 36 HH33   33.218000   38.530000   23.745000 H     5 NME     0.0976 ****
@<TRIPOS>BOND
    1     5     6 1
    2     5     7 1
    3     2     3 1
    4     2     4 1
    5     2     5 1
    6     1     2 1
    7    12    13 1
    8    12    14 1
    9     9    10 1
   10     9    11 1
   11     9    12 1
   12     7     8 1
   13     7     9 1
   14    22    23 1
   15    22    24 1
   16    18    19 1
   17    18    20 1
   18    18    21 1
   19    16    17 1
   20    16    18 1
   21    16    22 1
   22    14    15 1
   23    14    16 1
   24    29    30 1
   25    29    31 1
   26    26    27 1
   27    26    28 1
   28    26    29 1
   29    24    25 1
   30    24    26 1
   31    33    34 1
   32    33    35 1
   33    33    36 1
   34    31    32 1
   35    31    33 1
@<TRIPOS>SUBSTRUCTURE
      1  ACE              1 ****               0 ****  **** 
      2  GLY              7 ****               0 ****  **** 
      3  ALA             14 ****               0 ****  **** 
      4  GLY             24 ****               0 ****  **** 
      5  NME             31 ****               0 ****  **** 
