@<TRIPOS>MOLECULE
default_name
   36    35     5     0     1 
SMALL
USER_CHARGES
@<TRIPOS>ATOM
  1 H1     27.628000   28.500000   21.280000 H     1 ACE     0.1123 ****
  2 CH3    28.141000   29.433000   21.506000 C     1 ACE    -0.3662 ****
  3 H2     27.594000   30.265000   21.064000 H     1 ACE     0.1123 ****
  4 H3     29.152000   29.408000   21.105000 H     1 ACE     0.1123 ****
  5 C      28.200000   29.623000   23.003000 C     1 ACE     0.5972 ****
  6 O      27.685000   30.609000   23.520000 O     1 ACE    -0.5679 ****
  7 N      28.840000   28.685000   23.702000 N     2 GLY    -0.4157 ****
  8 H      29.268000   27.925000   23.199000 H     2 GLY     0.2719 ****
  9 CA     29.040000   28.750000   25.154000 C     2 GLY    -0.0252 ****
 10 HA2    28.074000   28.828000   25.653000 H     2 GLY     0.0698 ****
 11 HA3    29.533000   27.840000   25.495000 H     2 GLY     0.0698 ****
 12 C      29.915000   29.943000   25.548000 C     2 GLY     0.5973 ****
 13 O      31.131000   29.871000   25.424000 O     2 GLY    -0.5679 ****
 14 N      29.273000   31.031000   25.985000 N     3 ALA    -0.4157 ****
 15 H      28.266000   30.986000   25.981000 H     3 ALA     0.2719 ****
 16 CA     29.869000   32.355000   26.197000 C     3 ALA     0.0337 ****
 17 HA     29.050000   33.069000   26.289000 H     3 ALA     0.0823 ****
 18 CB     30.625000   32.362000   27.535000 C     3 ALA    -0.1825 ****
 19 HB1    31.472000   31.676000   27.488000 H     3 ALA     0.0603 ****
 20 HB2    30.999000   33.366000   27.739000 H     3 ALA     0.0603 ****
 21 HB3    29.959000   32.059000   28.343000 H     3 ALA     0.0603 ****
 22 C      30.714000   32.828000   24.989000 C     3 ALA     0.5973 ****
 23 O      31.893000   33.159000   25.110000 O     3 ALA    -0.5679 ****
 24 N      30.074000   32.925000   23.818000 N     4 GLY    -0.4157 ****
 25 H      29.107000   32.636000   23.776000 H     4 GLY     0.2719 ****
 26 CA     30.698000   33.402000   22.582000 C     4 GLY    -0.0252 ****
 27 HA2    31.689000   32.959000   22.478000 H     4 GLY     0.0698 ****
 28 HA3    30.094000   33.089000   21.731000 H     4 GLY     0.0698 ****
 29 C      30.825000   34.927000   22.539000 C     4 GLY     0.5973 ****
 30 O      29.913000   35.603000   22.070000 O     4 GLY    -0.5679 ****
 31 N      31.955000   35.464000   23.013000 N     5 NME    -0.4157 ****
 32 H      32.626000   34.838000   23.435000 H     5 NME     0.2719 ****
 33 CH3    32.236000   36.898000   23.038000 C     5 NME    -0.1490 ****
 34 HH31   31.469000   37.412000   23.620000 H     5 NME     0.0976 ****
 35 HH32   33.212000   37.081000   23.489000 H     5 NME     0.0976 ****
 36 HH33   32.227000   37.293000   22.021000 H     5 NME     0.0976 ****
@<TRIPOS>BOND
    1     5     6 1
    2     5     7 1
    3     2     3 1
    4     2     4 1
    5     2     5 1
    6     1     2 1
    7    12    13 1
    8    12    14 1
    9     9    10 1
   10     9    11 1
   11     9    12 1
   12     7     8 1
   13     7     9 1
   14    22    23 1
   15    22    24 1
   16    18    19 1
   17    18    20 1
   18    18    21 1
   19    16    17 1
   20    16    18 1
   21    16    22 1
   22    14    15 1
   23    14    16 1
   24    29    30 1
   25    29    31 1
   26    26    27 1
   27    26    28 1
   28    26    29 1
   29    24    25 1
   30    24    26 1
   31    33    34 1
   32    33    35 1
   33    33    36 1
   34    31    32 1
   35    31    33 1
@<TRIPOS>SUBSTRUCTURE
      1  ACE              1 ****               0 ****  **** 
      2  GLY              7 ****               0 ****  **** 
      3  ALA             14 ****               0 ****  **** 
      4  GLY             24 ****               0 ****  **** 
      5  NME             31 ****               0 ****  **** 
