@<TRIPOS>MOLECULE
default_name
   36    35     5     0     1 
SMALL
USER_CHARGES
@<TRIPOS>ATOM
  1 H1     25.580000   27.473000   24.251000 H     1 ACE     0.1123 ****
  2 CH3    26.417000   27.413000   23.556000 C     1 ACE    -0.3662 ****
  3 H2     26.151000   27.906000   22.623000 H     1 ACE     0.1123 ****
  4 H3     26.660000   26.368000   23.370000 H     1 ACE     0.1123 ****
  5 C      27.612000   28.105000   24.168000 C     1 ACE     0.5972 ****
  6 O      27.528000   28.617000   25.277000 O     1 ACE    -0.5679 ****
  7 N      28.729000   28.124000   23.443000 N     2 GLY    -0.4157 ****
  8 H      28.713000   27.702000   22.528000 H     2 GLY     0.2719 ****
  9 CA     29.961000   28.792000   23.872000 C     2 GLY    -0.0252 ****
 10 HA2    30.176000   28.535000   24.910000 H     2 GLY     0.0698 ****
 11 HA3    30.792000   28.448000   23.257000 H     2 GLY     0.0698 ****
 12 C      29.872000   30.315000   23.742000 C     2 GLY     0.5973 ****
 13 O      30.141000   30.848000   22.670000 O     2 GLY    -0.5679 ****
 14 N      29.467000   30.994000   24.820000 N     3 ALA    -0.4157 ****
 15 H      29.177000   30.446000   25.615000 H     3 ALA     0.2719 ****
 16 CA     29.517000   32.448000   25.014000 C     3 ALA     0.0337 ****
 17 HA     28.597000   32.862000   24.601000 H     3 ALA     0.0823 ****
 18 CB     29.502000   32.728000   26.523000 C     3 ALA    -0.1825 ****
 19 HB1    30.393000   32.306000   26.990000 H     3 ALA     0.0603 ****
 20 HB2    29.490000   33.805000   26.695000 H     3 ALA     0.0603 ****
 21 HB3    28.613000   32.287000   26.977000 H     3 ALA     0.0603 ****
 22 C      30.694000   33.154000   24.300000 C     3 ALA     0.5973 ****
 23 O      31.829000   33.116000   24.776000 O     3 ALA    -0.5679 ****
 24 N      30.422000   33.821000   23.174000 N     4 GLY    -0.4157 ****
 25 H      29.487000   33.773000   22.804000 H     4 GLY     0.2719 ****
 26 CA     31.422000   34.572000   22.410000 C     4 GLY    -0.0252 ****
 27 HA2    32.334000   33.981000   22.321000 H     4 GLY     0.0698 ****
 28 HA3    31.040000   34.761000   21.407000 H     4 GLY     0.0698 ****
 29 C      31.757000   35.920000   23.054000 C     4 GLY     0.5973 ****
 30 O      31.097000   36.915000   22.767000 O     4 GLY    -0.5679 ****
 31 N      32.781000   35.952000   23.913000 N     5 NME    -0.4157 ****
 32 H      33.225000   35.072000   24.139000 H     5 NME     0.2719 ****
 33 CH3    33.235000   37.155000   24.608000 C     5 NME    -0.1490 ****
 34 HH31   32.418000   37.563000   25.205000 H     5 NME     0.0976 ****
 35 HH32   34.075000   36.917000   25.261000 H     5 NME     0.0976 ****
 36 HH33   33.544000   37.906000   23.879000 H     5 NME     0.0976 ****
@<TRIPOS>BOND
    1     5     6 1
    2     5     7 1
    3     2     3 1
    4     2     4 1
    5     2     5 1
    6     1     2 1
    7    12    13 1
    8    12    14 1
    9     9    10 1
   10     9    11 1
   11     9    12 1
   12     7     8 1
   13     7     9 1
   14    22    23 1
   15    22    24 1
   16    18    19 1
   17    18    20 1
   18    18    21 1
   19    16    17 1
   20    16    18 1
   21    16    22 1
   22    14    15 1
   23    14    16 1
   24    29    30 1
   25    29    31 1
   26    26    27 1
   27    26    28 1
   28    26    29 1
   29    24    25 1
   30    24    26 1
   31    33    34 1
   32    33    35 1
   33    33    36 1
   34    31    32 1
   35    31    33 1
@<TRIPOS>SUBSTRUCTURE
      1  ACE              1 ****               0 ****  **** 
      2  GLY              7 ****               0 ****  **** 
      3  ALA             14 ****               0 ****  **** 
      4  GLY             24 ****               0 ****  **** 
      5  NME             31 ****               0 ****  **** 
