@<TRIPOS>MOLECULE
default_name
   36    35     5     0     1 
SMALL
USER_CHARGES
@<TRIPOS>ATOM
  1 H1     25.590000   29.090000   22.761000 H     1 ACE     0.1123 ****
  2 CH3    26.126000   29.516000   21.915000 C     1 ACE    -0.3662 ****
  3 H2     25.865000   30.566000   21.798000 H     1 ACE     0.1123 ****
  4 H3     25.871000   28.972000   21.007000 H     1 ACE     0.1123 ****
  5 C      27.613000   29.397000   22.154000 C     1 ACE     0.5972 ****
  6 O      28.312000   28.760000   21.377000 O     1 ACE    -0.5679 ****
  7 N      28.093000   30.005000   23.235000 N     2 GLY    -0.4157 ****
  8 H      27.458000   30.508000   23.837000 H     2 GLY     0.2719 ****
  9 CA     29.508000   30.021000   23.609000 C     2 GLY    -0.0252 ****
 10 HA2    29.891000   29.000000   23.624000 H     2 GLY     0.0698 ****
 11 HA3    30.065000   30.588000   22.863000 H     2 GLY     0.0698 ****
 12 C      29.746000   30.660000   24.980000 C     2 GLY     0.5973 ****
 13 O      28.802000   31.056000   25.662000 O     2 GLY    -0.5679 ****
 14 N      31.014000   30.727000   25.396000 N     3 ALA    -0.4157 ****
 15 H      31.718000   30.350000   24.782000 H     3 ALA     0.2719 ****
 16 CA     31.502000   31.557000   26.503000 C     3 ALA     0.0337 ****
 17 HA     30.798000   31.479000   27.333000 H     3 ALA     0.0823 ****
 18 CB     32.848000   30.985000   26.974000 C     3 ALA    -0.1825 ****
 19 HB1    33.219000   31.572000   27.815000 H     3 ALA     0.0603 ****
 20 HB2    32.721000   29.950000   27.293000 H     3 ALA     0.0603 ****
 21 HB3    33.579000   31.027000   26.165000 H     3 ALA     0.0603 ****
 22 C      31.578000   33.049000   26.099000 C     3 ALA     0.5973 ****
 23 O      32.655000   33.562000   25.800000 O     3 ALA    -0.5679 ****
 24 N      30.435000   33.734000   25.990000 N     4 GLY    -0.4157 ****
 25 H      29.577000   33.292000   26.274000 H     4 GLY     0.2719 ****
 26 CA     30.326000   34.943000   25.170000 C     4 GLY    -0.0252 ****
 27 HA2    29.372000   35.433000   25.362000 H     4 GLY     0.0698 ****
 28 HA3    31.129000   35.632000   25.434000 H     4 GLY     0.0698 ****
 29 C      30.413000   34.618000   23.672000 C     4 GLY     0.5973 ****
 30 O      30.019000   33.534000   23.241000 O     4 GLY    -0.5679 ****
 31 N      30.921000   35.565000   22.875000 N     5 NME    -0.4157 ****
 32 H      31.248000   36.417000   23.303000 H     5 NME     0.2719 ****
 33 CH3    31.079000   35.417000   21.430000 C     5 NME    -0.1490 ****
 34 HH31   31.478000   36.334000   20.995000 H     5 NME     0.0976 ****
 35 HH32   31.763000   34.592000   21.218000 H     5 NME     0.0976 ****
 36 HH33   30.113000   35.192000   20.974000 H     5 NME     0.0976 ****
@<TRIPOS>BOND
    1     5     6 1
    2     5     7 1
    3     2     3 1
    4     2     4 1
    5     2     5 1
    6     1     2 1
    7    12    13 1
    8    12    14 1
    9     9    10 1
   10     9    11 1
   11     9    12 1
   12     7     8 1
   13     7     9 1
   14    22    23 1
   15    22    24 1
   16    18    19 1
   17    18    20 1
   18    18    21 1
   19    16    17 1
   20    16    18 1
   21    16    22 1
   22    14    15 1
   23    14    16 1
   24    29    30 1
   25    29    31 1
   26    26    27 1
   27    26    28 1
   28    26    29 1
   29    24    25 1
   30    24    26 1
   31    33    34 1
   32    33    35 1
   33    33    36 1
   34    31    32 1
   35    31    33 1
@<TRIPOS>SUBSTRUCTURE
      1  ACE              1 ****               0 ****  **** 
      2  GLY              7 ****               0 ****  **** 
      3  ALA             14 ****               0 ****  **** 
      4  GLY             24 ****               0 ****  **** 
      5  NME             31 ****               0 ****  **** 
