@<TRIPOS>MOLECULE
default_name
   36    35     5     0     1 
SMALL
USER_CHARGES
@<TRIPOS>ATOM
  1 H1     26.424000   25.504000   22.162000 H     1 ACE     0.1123 ****
  2 CH3    26.551000   26.586000   22.159000 C     1 ACE    -0.3662 ****
  3 H2     25.580000   27.069000   22.257000 H     1 ACE     0.1123 ****
  4 H3     27.029000   26.896000   21.232000 H     1 ACE     0.1123 ****
  5 C      27.425000   26.979000   23.327000 C     1 ACE     0.5972 ****
  6 O      27.860000   26.124000   24.087000 O     1 ACE    -0.5679 ****
  7 N      27.679000   28.277000   23.472000 N     2 GLY    -0.4157 ****
  8 H      27.284000   28.932000   22.812000 H     2 GLY     0.2719 ****
  9 CA     28.511000   28.837000   24.538000 C     2 GLY    -0.0252 ****
 10 HA2    28.121000   28.518000   25.505000 H     2 GLY     0.0698 ****
 11 HA3    29.528000   28.458000   24.435000 H     2 GLY     0.0698 ****
 12 C      28.554000   30.367000   24.503000 C     2 GLY     0.5973 ****
 13 O      27.930000   30.993000   23.646000 O     2 GLY    -0.5679 ****
 14 N      29.280000   30.969000   25.448000 N     3 ALA    -0.4157 ****
 15 H      29.790000   30.394000   26.097000 H     3 ALA     0.2719 ****
 16 CA     29.559000   32.406000   25.445000 C     3 ALA     0.0337 ****
 17 HA     28.680000   32.943000   25.084000 H     3 ALA     0.0823 ****
 18 CB     29.817000   32.829000   26.900000 C     3 ALA    -0.1825 ****
 19 HB1    30.717000   32.340000   27.278000 H     3 ALA     0.0603 ****
 20 HB2    29.948000   33.910000   26.960000 H     3 ALA     0.0603 ****
 21 HB3    28.966000   32.550000   27.522000 H     3 ALA     0.0603 ****
 22 C      30.742000   32.764000   24.514000 C     3 ALA     0.5973 ****
 23 O      31.375000   31.891000   23.920000 O     3 ALA    -0.5679 ****
 24 N      31.091000   34.050000   24.437000 N     4 GLY    -0.4157 ****
 25 H      30.564000   34.736000   24.960000 H     4 GLY     0.2719 ****
 26 CA     32.201000   34.557000   23.629000 C     4 GLY    -0.0252 ****
 27 HA2    33.124000   34.063000   23.931000 H     4 GLY     0.0698 ****
 28 HA3    32.015000   34.327000   22.579000 H     4 GLY     0.0698 ****
 29 C      32.381000   36.070000   23.777000 C     4 GLY     0.5973 ****
 30 O      31.661000   36.711000   24.541000 O     4 GLY    -0.5679 ****
 31 N      33.346000   36.638000   23.044000 N     5 NME    -0.4157 ****
 32 H      33.893000   36.045000   22.440000 H     5 NME     0.2719 ****
 33 CH3    33.651000   38.068000   23.064000 C     5 NME    -0.1490 ****
 34 HH31   32.770000   38.637000   22.759000 H     5 NME     0.0976 ****
 35 HH32   33.926000   38.372000   24.076000 H     5 NME     0.0976 ****
 36 HH33   34.475000   38.289000   22.385000 H     5 NME     0.0976 ****
@<TRIPOS>BOND
    1     5     6 1
    2     5     7 1
    3     2     3 1
    4     2     4 1
    5     2     5 1
    6     1     2 1
    7    12    13 1
    8    12    14 1
    9     9    10 1
   10     9    11 1
   11     9    12 1
   12     7     8 1
   13     7     9 1
   14    22    23 1
   15    22    24 1
   16    18    19 1
   17    18    20 1
   18    18    21 1
   19    16    17 1
   20    16    18 1
   21    16    22 1
   22    14    15 1
   23    14    16 1
   24    29    30 1
   25    29    31 1
   26    26    27 1
   27    26    28 1
   28    26    29 1
   29    24    25 1
   30    24    26 1
   31    33    34 1
   32    33    35 1
   33    33    36 1
   34    31    32 1
   35    31    33 1
@<TRIPOS>SUBSTRUCTURE
      1  ACE              1 ****               0 ****  **** 
      2  GLY              7 ****               0 ****  **** 
      3  ALA             14 ****               0 ****  **** 
      4  GLY             24 ****               0 ****  **** 
      5  NME             31 ****               0 ****  **** 
