@<TRIPOS>MOLECULE
default_name
   36    35     5     0     1 
SMALL
USER_CHARGES
@<TRIPOS>ATOM
  1 H1     26.419000   26.791000   21.439000 H     1 ACE     0.1123 ****
  2 CH3    26.364000   27.504000   22.261000 C     1 ACE    -0.3662 ****
  3 H2     26.073000   26.988000   23.173000 H     1 ACE     0.1123 ****
  4 H3     25.638000   28.279000   22.024000 H     1 ACE     0.1123 ****
  5 C      27.723000   28.134000   22.454000 C     1 ACE     0.5972 ****
  6 O      28.661000   27.812000   21.737000 O     1 ACE    -0.5679 ****
  7 N      27.831000   29.035000   23.427000 N     2 GLY    -0.4157 ****
  8 H      27.020000   29.252000   23.987000 H     2 GLY     0.2719 ****
  9 CA     29.070000   29.744000   23.752000 C     2 GLY    -0.0252 ****
 10 HA2    29.853000   29.017000   23.970000 H     2 GLY     0.0698 ****
 11 HA3    29.382000   30.335000   22.890000 H     2 GLY     0.0698 ****
 12 C      28.912000   30.674000   24.957000 C     2 GLY     0.5973 ****
 13 O      27.827000   30.786000   25.523000 O     2 GLY    -0.5679 ****
 14 N      30.001000   31.347000   25.342000 N     3 ALA    -0.4157 ****
 15 H      30.859000   31.180000   24.841000 H     3 ALA     0.2719 ****
 16 CA     30.067000   32.214000   26.529000 C     3 ALA     0.0337 ****
 17 HA     29.051000   32.494000   26.813000 H     3 ALA     0.0823 ****
 18 CB     30.662000   31.399000   27.688000 C     3 ALA    -0.1825 ****
 19 HB1    31.692000   31.122000   27.462000 H     3 ALA     0.0603 ****
 20 HB2    30.647000   31.994000   28.602000 H     3 ALA     0.0603 ****
 21 HB3    30.069000   30.497000   27.851000 H     3 ALA     0.0603 ****
 22 C      30.817000   33.544000   26.282000 C     3 ALA     0.5973 ****
 23 O      31.251000   34.208000   27.219000 O     3 ALA    -0.5679 ****
 24 N      30.996000   33.930000   25.016000 N     4 GLY    -0.4157 ****
 25 H      30.605000   33.366000   24.274000 H     4 GLY     0.2719 ****
 26 CA     31.713000   35.137000   24.603000 C     4 GLY    -0.0252 ****
 27 HA2    31.174000   36.016000   24.956000 H     4 GLY     0.0698 ****
 28 HA3    32.708000   35.139000   25.048000 H     4 GLY     0.0698 ****
 29 C      31.854000   35.219000   23.080000 C     4 GLY     0.5973 ****
 30 O      31.422000   34.313000   22.369000 O     4 GLY    -0.5679 ****
 31 N      32.458000   36.305000   22.585000 N     5 NME    -0.4157 ****
 32 H      32.785000   37.004000   23.234000 H     5 NME     0.2719 ****
 33 CH3    32.672000   36.539000   21.158000 C     5 NME    -0.1490 ****
 34 HH31   31.712000   36.558000   20.639000 H     5 NME     0.0976 ****
 35 HH32   33.183000   37.490000   21.002000 H     5 NME     0.0976 ****
 36 HH33   33.277000   35.733000   20.738000 H     5 NME     0.0976 ****
@<TRIPOS>BOND
    1     5     6 1
    2     5     7 1
    3     2     3 1
    4     2     4 1
    5     2     5 1
    6     1     2 1
    7    12    13 1
    8    12    14 1
    9     9    10 1
   10     9    11 1
   11     9    12 1
   12     7     8 1
   13     7     9 1
   14    22    23 1
   15    22    24 1
   16    18    19 1
   17    18    20 1
   18    18    21 1
   19    16    17 1
   20    16    18 1
   21    16    22 1
   22    14    15 1
   23    14    16 1
   24    29    30 1
   25    29    31 1
   26    26    27 1
   27    26    28 1
   28    26    29 1
   29    24    25 1
   30    24    26 1
   31    33    34 1
   32    33    35 1
   33    33    36 1
   34    31    32 1
   35    31    33 1
@<TRIPOS>SUBSTRUCTURE
      1  ACE              1 ****               0 ****  **** 
      2  GLY              7 ****               0 ****  **** 
      3  ALA             14 ****               0 ****  **** 
      4  GLY             24 ****               0 ****  **** 
      5  NME             31 ****               0 ****  **** 
