@<TRIPOS>MOLECULE
default_name
   36    35     5     0     1 
SMALL
USER_CHARGES
@<TRIPOS>ATOM
  1 H1     25.560000   28.184000   24.090000 H     1 ACE     0.1123 ****
  2 CH3    26.065000   28.631000   23.234000 C     1 ACE    -0.3662 ****
  3 H2     25.560000   29.554000   22.957000 H     1 ACE     0.1123 ****
  4 H3     26.052000   27.933000   22.400000 H     1 ACE     0.1123 ****
  5 C      27.495000   28.935000   23.614000 C     1 ACE     0.5972 ****
  6 O      27.904000   28.675000   24.738000 O     1 ACE    -0.5679 ****
  7 N      28.261000   29.490000   22.677000 N     2 GLY    -0.4157 ****
  8 H      27.846000   29.693000   21.781000 H     2 GLY     0.2719 ****
  9 CA     29.654000   29.887000   22.900000 C     2 GLY    -0.0252 ****
 10 HA2    30.177000   29.100000   23.445000 H     2 GLY     0.0698 ****
 11 HA3    30.148000   30.020000   21.937000 H     2 GLY     0.0698 ****
 12 C      29.766000   31.199000   23.681000 C     2 GLY     0.5973 ****
 13 O      29.754000   32.268000   23.077000 O     2 GLY    -0.5679 ****
 14 N      29.844000   31.118000   25.014000 N     3 ALA    -0.4157 ****
 15 H      29.737000   30.200000   25.419000 H     3 ALA     0.2719 ****
 16 CA     30.087000   32.218000   25.961000 C     3 ALA     0.0337 ****
 17 HA     29.193000   32.844000   25.952000 H     3 ALA     0.0823 ****
 18 CB     30.188000   31.591000   27.359000 C     3 ALA    -0.1825 ****
 19 HB1    31.078000   30.965000   27.426000 H     3 ALA     0.0603 ****
 20 HB2    30.252000   32.379000   28.112000 H     3 ALA     0.0603 ****
 21 HB3    29.302000   30.987000   27.564000 H     3 ALA     0.0603 ****
 22 C      31.270000   33.191000   25.700000 C     3 ALA     0.5973 ****
 23 O      31.409000   34.161000   26.438000 O     3 ALA    -0.5679 ****
 24 N      32.088000   33.008000   24.655000 N     4 GLY    -0.4157 ****
 25 H      31.985000   32.173000   24.107000 H     4 GLY     0.2719 ****
 26 CA     33.146000   33.950000   24.257000 C     4 GLY    -0.0252 ****
 27 HA2    33.631000   34.345000   25.151000 H     4 GLY     0.0698 ****
 28 HA3    33.896000   33.413000   23.677000 H     4 GLY     0.0698 ****
 29 C      32.677000   35.147000   23.415000 C     4 GLY     0.5973 ****
 30 O      33.505000   35.969000   23.033000 O     4 GLY    -0.5679 ****
 31 N      31.379000   35.240000   23.097000 N     5 NME    -0.4157 ****
 32 H      30.763000   34.514000   23.431000 H     5 NME     0.2719 ****
 33 CH3    30.800000   36.323000   22.305000 C     5 NME    -0.1490 ****
 34 HH31   29.744000   36.126000   22.117000 H     5 NME     0.0976 ****
 35 HH32   30.901000   37.266000   22.846000 H     5 NME     0.0976 ****
 36 HH33   31.328000   36.407000   21.354000 H     5 NME     0.0976 ****
@<TRIPOS>BOND
    1     5     6 1
    2     5     7 1
    3     2     3 1
    4     2     4 1
    5     2     5 1
    6     1     2 1
    7    12    13 1
    8    12    14 1
    9     9    10 1
   10     9    11 1
   11     9    12 1
   12     7     8 1
   13     7     9 1
   14    22    23 1
   15    22    24 1
   16    18    19 1
   17    18    20 1
   18    18    21 1
   19    16    17 1
   20    16    18 1
   21    16    22 1
   22    14    15 1
   23    14    16 1
   24    29    30 1
   25    29    31 1
   26    26    27 1
   27    26    28 1
   28    26    29 1
   29    24    25 1
   30    24    26 1
   31    33    34 1
   32    33    35 1
   33    33    36 1
   34    31    32 1
   35    31    33 1
@<TRIPOS>SUBSTRUCTURE
      1  ACE              1 ****               0 ****  **** 
      2  GLY              7 ****               0 ****  **** 
      3  ALA             14 ****               0 ****  **** 
      4  GLY             24 ****               0 ****  **** 
      5  NME             31 ****               0 ****  **** 
