@<TRIPOS>MOLECULE
default_name
   36    35     5     0     1 
SMALL
USER_CHARGES
@<TRIPOS>ATOM
  1 H1     26.371000   26.242000   21.974000 H     1 ACE     0.1123 ****
  2 CH3    26.308000   27.249000   22.385000 C     1 ACE    -0.3662 ****
  3 H2     25.589000   27.267000   23.201000 H     1 ACE     0.1123 ****
  4 H3     26.002000   27.943000   21.604000 H     1 ACE     0.1123 ****
  5 C      27.668000   27.651000   22.906000 C     1 ACE     0.5972 ****
  6 O      28.614000   26.879000   22.824000 O     1 ACE    -0.5679 ****
  7 N      27.768000   28.862000   23.446000 N     2 GLY    -0.4157 ****
  8 H      26.949000   29.453000   23.487000 H     2 GLY     0.2719 ****
  9 CA     29.009000   29.408000   23.997000 C     2 GLY    -0.0252 ****
 10 HA2    29.368000   28.751000   24.790000 H     2 GLY     0.0698 ****
 11 HA3    29.764000   29.441000   23.211000 H     2 GLY     0.0698 ****
 12 C      28.830000   30.817000   24.569000 C     2 GLY     0.5973 ****
 13 O      27.733000   31.367000   24.539000 O     2 GLY    -0.5679 ****
 14 N      29.919000   31.396000   25.083000 N     3 ALA    -0.4157 ****
 15 H      30.764000   30.851000   25.119000 H     3 ALA     0.2719 ****
 16 CA     29.912000   32.690000   25.784000 C     3 ALA     0.0337 ****
 17 HA     28.999000   33.229000   25.522000 H     3 ALA     0.0823 ****
 18 CB     29.869000   32.412000   27.293000 C     3 ALA    -0.1825 ****
 19 HB1    30.775000   31.893000   27.607000 H     3 ALA     0.0603 ****
 20 HB2    29.793000   33.355000   27.837000 H     3 ALA     0.0603 ****
 21 HB3    28.997000   31.801000   27.533000 H     3 ALA     0.0603 ****
 22 C      31.078000   33.632000   25.403000 C     3 ALA     0.5973 ****
 23 O      31.165000   34.744000   25.918000 O     3 ALA    -0.5679 ****
 24 N      31.991000   33.202000   24.523000 N     4 GLY    -0.4157 ****
 25 H      31.842000   32.315000   24.073000 H     4 GLY     0.2719 ****
 26 CA     33.110000   34.023000   24.049000 C     4 GLY    -0.0252 ****
 27 HA2    33.551000   34.569000   24.884000 H     4 GLY     0.0698 ****
 28 HA3    33.877000   33.376000   23.622000 H     4 GLY     0.0698 ****
 29 C      32.677000   35.019000   22.972000 C     4 GLY     0.5973 ****
 30 O      32.712000   34.689000   21.791000 O     4 GLY    -0.5679 ****
 31 N      32.270000   36.227000   23.379000 N     5 NME    -0.4157 ****
 32 H      32.213000   36.390000   24.375000 H     5 NME     0.2719 ****
 33 CH3    31.825000   37.289000   22.479000 C     5 NME    -0.1490 ****
 34 HH31   30.967000   36.944000   21.899000 H     5 NME     0.0976 ****
 35 HH32   31.539000   38.172000   23.052000 H     5 NME     0.0976 ****
 36 HH33   32.630000   37.550000   21.789000 H     5 NME     0.0976 ****
@<TRIPOS>BOND
    1     5     6 1
    2     5     7 1
    3     2     3 1
    4     2     4 1
    5     2     5 1
    6     1     2 1
    7    12    13 1
    8    12    14 1
    9     9    10 1
   10     9    11 1
   11     9    12 1
   12     7     8 1
   13     7     9 1
   14    22    23 1
   15    22    24 1
   16    18    19 1
   17    18    20 1
   18    18    21 1
   19    16    17 1
   20    16    18 1
   21    16    22 1
   22    14    15 1
   23    14    16 1
   24    29    30 1
   25    29    31 1
   26    26    27 1
   27    26    28 1
   28    26    29 1
   29    24    25 1
   30    24    26 1
   31    33    34 1
   32    33    35 1
   33    33    36 1
   34    31    32 1
   35    31    33 1
@<TRIPOS>SUBSTRUCTURE
      1  ACE              1 ****               0 ****  **** 
      2  GLY              7 ****               0 ****  **** 
      3  ALA             14 ****               0 ****  **** 
      4  GLY             24 ****               0 ****  **** 
      5  NME             31 ****               0 ****  **** 
