@<TRIPOS>MOLECULE
default_name
   36    35     5     0     1 
SMALL
USER_CHARGES
@<TRIPOS>ATOM
  1 H1     28.799000   29.430000   21.079000 H     1 ACE     0.1123 ****
  2 CH3    29.103000   30.379000   21.517000 C     1 ACE    -0.3662 ****
  3 H2     28.889000   31.186000   20.817000 H     1 ACE     0.1123 ****
  4 H3     30.167000   30.363000   21.743000 H     1 ACE     0.1123 ****
  5 C      28.326000   30.618000   22.790000 C     1 ACE     0.5972 ****
  6 O      27.664000   31.637000   22.921000 O     1 ACE    -0.5679 ****
  7 N      28.431000   29.682000   23.734000 N     2 GLY    -0.4157 ****
  8 H      29.011000   28.883000   23.532000 H     2 GLY     0.2719 ****
  9 CA     27.795000   29.737000   25.062000 C     2 GLY    -0.0252 ****
 10 HA2    26.840000   30.259000   24.978000 H     2 GLY     0.0698 ****
 11 HA3    27.596000   28.722000   25.406000 H     2 GLY     0.0698 ****
 12 C      28.626000   30.452000   26.138000 C     2 GLY     0.5973 ****
 13 O      28.588000   30.044000   27.293000 O     2 GLY    -0.5679 ****
 14 N      29.392000   31.474000   25.742000 N     3 ALA    -0.4157 ****
 15 H      29.287000   31.732000   24.775000 H     3 ALA     0.2719 ****
 16 CA     30.543000   32.094000   26.410000 C     3 ALA     0.0337 ****
 17 HA     30.202000   32.863000   27.104000 H     3 ALA     0.0823 ****
 18 CB     31.407000   31.062000   27.159000 C     3 ALA    -0.1825 ****
 19 HB1    31.647000   30.222000   26.505000 H     3 ALA     0.0603 ****
 20 HB2    32.335000   31.529000   27.490000 H     3 ALA     0.0603 ****
 21 HB3    30.882000   30.695000   28.041000 H     3 ALA     0.0603 ****
 22 C      31.414000   32.720000   25.305000 C     3 ALA     0.5973 ****
 23 O      31.829000   32.035000   24.369000 O     3 ALA    -0.5679 ****
 24 N      31.611000   34.041000   25.356000 N     4 GLY    -0.4157 ****
 25 H      31.215000   34.557000   26.126000 H     4 GLY     0.2719 ****
 26 CA     32.188000   34.814000   24.251000 C     4 GLY    -0.0252 ****
 27 HA2    32.562000   35.765000   24.630000 H     4 GLY     0.0698 ****
 28 HA3    33.022000   34.269000   23.807000 H     4 GLY     0.0698 ****
 29 C      31.143000   35.105000   23.171000 C     4 GLY     0.5973 ****
 30 O      30.500000   36.148000   23.218000 O     4 GLY    -0.5679 ****
 31 N      30.961000   34.176000   22.224000 N     5 NME    -0.4157 ****
 32 H      31.519000   33.338000   22.280000 H     5 NME     0.2719 ****
 33 CH3    29.937000   34.251000   21.184000 C     5 NME    -0.1490 ****
 34 HH31   28.971000   33.950000   21.598000 H     5 NME     0.0976 ****
 35 HH32   29.854000   35.275000   20.814000 H     5 NME     0.0976 ****
 36 HH33   30.193000   33.591000   20.354000 H     5 NME     0.0976 ****
@<TRIPOS>BOND
    1     5     6 1
    2     5     7 1
    3     2     3 1
    4     2     4 1
    5     2     5 1
    6     1     2 1
    7    12    13 1
    8    12    14 1
    9     9    10 1
   10     9    11 1
   11     9    12 1
   12     7     8 1
   13     7     9 1
   14    22    23 1
   15    22    24 1
   16    18    19 1
   17    18    20 1
   18    18    21 1
   19    16    17 1
   20    16    18 1
   21    16    22 1
   22    14    15 1
   23    14    16 1
   24    29    30 1
   25    29    31 1
   26    26    27 1
   27    26    28 1
   28    26    29 1
   29    24    25 1
   30    24    26 1
   31    33    34 1
   32    33    35 1
   33    33    36 1
   34    31    32 1
   35    31    33 1
@<TRIPOS>SUBSTRUCTURE
      1  ACE              1 ****               0 ****  **** 
      2  GLY              7 ****               0 ****  **** 
      3  ALA             14 ****               0 ****  **** 
      4  GLY             24 ****               0 ****  **** 
      5  NME             31 ****               0 ****  **** 
