@<TRIPOS>MOLECULE
default_name
   36    35     5     0     1 
SMALL
USER_CHARGES
@<TRIPOS>ATOM
  1 H1     25.473000   27.972000   24.837000 H     1 ACE     0.1123 ****
  2 CH3    26.000000   28.221000   23.916000 C     1 ACE    -0.3662 ****
  3 H2     25.619000   29.161000   23.521000 H     1 ACE     0.1123 ****
  4 H3     25.851000   27.424000   23.189000 H     1 ACE     0.1123 ****
  5 C      27.473000   28.355000   24.216000 C     1 ACE     0.5972 ****
  6 O      27.887000   28.190000   25.354000 O     1 ACE    -0.5679 ****
  7 N      28.264000   28.680000   23.194000 N     2 GLY    -0.4157 ****
  8 H      27.835000   28.806000   22.291000 H     2 GLY     0.2719 ****
  9 CA     29.731000   28.788000   23.272000 C     2 GLY    -0.0252 ****
 10 HA2    30.108000   27.970000   23.888000 H     2 GLY     0.0698 ****
 11 HA3    30.147000   28.671000   22.271000 H     2 GLY     0.0698 ****
 12 C      30.286000   30.096000   23.860000 C     2 GLY     0.5973 ****
 13 O      31.449000   30.403000   23.621000 O     2 GLY    -0.5679 ****
 14 N      29.477000   30.870000   24.594000 N     3 ALA    -0.4157 ****
 15 H      28.560000   30.506000   24.789000 H     3 ALA     0.2719 ****
 16 CA     29.751000   32.234000   25.062000 C     3 ALA     0.0337 ****
 17 HA     28.787000   32.675000   25.319000 H     3 ALA     0.0823 ****
 18 CB     30.561000   32.174000   26.367000 C     3 ALA    -0.1825 ****
 19 HB1    31.525000   31.692000   26.196000 H     3 ALA     0.0603 ****
 20 HB2    30.724000   33.182000   26.750000 H     3 ALA     0.0603 ****
 21 HB3    30.011000   31.599000   27.114000 H     3 ALA     0.0603 ****
 22 C      30.348000   33.176000   23.989000 C     3 ALA     0.5973 ****
 23 O      29.590000   33.846000   23.294000 O     3 ALA    -0.5679 ****
 24 N      31.678000   33.276000   23.878000 N     4 GLY    -0.4157 ****
 25 H      32.229000   32.631000   24.425000 H     4 GLY     0.2719 ****
 26 CA     32.385000   34.075000   22.865000 C     4 GLY    -0.0252 ****
 27 HA2    33.394000   33.679000   22.747000 H     4 GLY     0.0698 ****
 28 HA3    31.870000   33.962000   21.910000 H     4 GLY     0.0698 ****
 29 C      32.503000   35.582000   23.146000 C     4 GLY     0.5973 ****
 30 O      33.371000   36.230000   22.570000 O     4 GLY    -0.5679 ****
 31 N      31.687000   36.139000   24.051000 N     5 NME    -0.4157 ****
 32 H      30.973000   35.554000   24.452000 H     5 NME     0.2719 ****
 33 CH3    31.717000   37.551000   24.426000 C     5 NME    -0.1490 ****
 34 HH31   30.953000   37.759000   25.177000 H     5 NME     0.0976 ****
 35 HH32   32.699000   37.805000   24.828000 H     5 NME     0.0976 ****
 36 HH33   31.532000   38.167000   23.544000 H     5 NME     0.0976 ****
@<TRIPOS>BOND
    1     5     6 1
    2     5     7 1
    3     2     3 1
    4     2     4 1
    5     2     5 1
    6     1     2 1
    7    12    13 1
    8    12    14 1
    9     9    10 1
   10     9    11 1
   11     9    12 1
   12     7     8 1
   13     7     9 1
   14    22    23 1
   15    22    24 1
   16    18    19 1
   17    18    20 1
   18    18    21 1
   19    16    17 1
   20    16    18 1
   21    16    22 1
   22    14    15 1
   23    14    16 1
   24    29    30 1
   25    29    31 1
   26    26    27 1
   27    26    28 1
   28    26    29 1
   29    24    25 1
   30    24    26 1
   31    33    34 1
   32    33    35 1
   33    33    36 1
   34    31    32 1
   35    31    33 1
@<TRIPOS>SUBSTRUCTURE
      1  ACE              1 ****               0 ****  **** 
      2  GLY              7 ****               0 ****  **** 
      3  ALA             14 ****               0 ****  **** 
      4  GLY             24 ****               0 ****  **** 
      5  NME             31 ****               0 ****  **** 
