@<TRIPOS>MOLECULE
default_name
   36    35     5     0     1 
SMALL
USER_CHARGES
@<TRIPOS>ATOM
  1 H1     25.567000   27.764000   22.440000 H     1 ACE     0.1123 ****
  2 CH3    26.272000   27.311000   23.137000 C     1 ACE    -0.3662 ****
  3 H2     26.524000   26.308000   22.800000 H     1 ACE     0.1123 ****
  4 H3     25.828000   27.272000   24.130000 H     1 ACE     0.1123 ****
  5 C      27.524000   28.155000   23.182000 C     1 ACE     0.5972 ****
  6 O      27.613000   29.166000   22.498000 O     1 ACE    -0.5679 ****
  7 N      28.498000   27.743000   23.992000 N     2 GLY    -0.4157 ****
  8 H      28.343000   26.918000   24.548000 H     2 GLY     0.2719 ****
  9 CA     29.742000   28.490000   24.193000 C     2 GLY    -0.0252 ****
 10 HA2    30.486000   27.836000   24.648000 H     2 GLY     0.0698 ****
 11 HA3    30.128000   28.829000   23.231000 H     2 GLY     0.0698 ****
 12 C      29.545000   29.698000   25.112000 C     2 GLY     0.5973 ****
 13 O      29.609000   29.531000   26.325000 O     2 GLY    -0.5679 ****
 14 N      29.312000   30.873000   24.511000 N     3 ALA    -0.4157 ****
 15 H      29.178000   30.824000   23.509000 H     3 ALA     0.2719 ****
 16 CA     29.145000   32.225000   25.074000 C     3 ALA     0.0337 ****
 17 HA     28.083000   32.402000   25.249000 H     3 ALA     0.0823 ****
 18 CB     29.895000   32.420000   26.413000 C     3 ALA    -0.1825 ****
 19 HB1    30.941000   32.126000   26.314000 H     3 ALA     0.0603 ****
 20 HB2    29.833000   33.461000   26.732000 H     3 ALA     0.0603 ****
 21 HB3    29.425000   31.822000   27.194000 H     3 ALA     0.0603 ****
 22 C      29.608000   33.242000   24.001000 C     3 ALA     0.5973 ****
 23 O      29.035000   33.274000   22.916000 O     3 ALA    -0.5679 ****
 24 N      30.641000   34.052000   24.257000 N     4 GLY    -0.4157 ****
 25 H      31.101000   33.988000   25.155000 H     4 GLY     0.2719 ****
 26 CA     31.170000   35.041000   23.317000 C     4 GLY    -0.0252 ****
 27 HA2    31.499000   34.535000   22.409000 H     4 GLY     0.0698 ****
 28 HA3    30.380000   35.744000   23.050000 H     4 GLY     0.0698 ****
 29 C      32.350000   35.824000   23.898000 C     4 GLY     0.5973 ****
 30 O      32.752000   35.591000   25.036000 O     4 GLY    -0.5679 ****
 31 N      32.903000   36.754000   23.111000 N     5 NME    -0.4157 ****
 32 H      32.515000   36.886000   22.189000 H     5 NME     0.2719 ****
 33 CH3    34.034000   37.591000   23.508000 C     5 NME    -0.1490 ****
 34 HH31   33.770000   38.172000   24.393000 H     5 NME     0.0976 ****
 35 HH32   34.892000   36.960000   23.751000 H     5 NME     0.0976 ****
 36 HH33   34.306000   38.271000   22.699000 H     5 NME     0.0976 ****
@<TRIPOS>BOND
    1     5     6 1
    2     5     7 1
    3     2     3 1
    4     2     4 1
    5     2     5 1
    6     1     2 1
    7    12    13 1
    8    12    14 1
    9     9    10 1
   10     9    11 1
   11     9    12 1
   12     7     8 1
   13     7     9 1
   14    22    23 1
   15    22    24 1
   16    18    19 1
   17    18    20 1
   18    18    21 1
   19    16    17 1
   20    16    18 1
   21    16    22 1
   22    14    15 1
   23    14    16 1
   24    29    30 1
   25    29    31 1
   26    26    27 1
   27    26    28 1
   28    26    29 1
   29    24    25 1
   30    24    26 1
   31    33    34 1
   32    33    35 1
   33    33    36 1
   34    31    32 1
   35    31    33 1
@<TRIPOS>SUBSTRUCTURE
      1  ACE              1 ****               0 ****  **** 
      2  GLY              7 ****               0 ****  **** 
      3  ALA             14 ****               0 ****  **** 
      4  GLY             24 ****               0 ****  **** 
      5  NME             31 ****               0 ****  **** 
