@<TRIPOS>MOLECULE
default_name
   36    35     5     0     1 
SMALL
USER_CHARGES
@<TRIPOS>ATOM
  1 H1     25.163000   27.325000   23.946000 H     1 ACE     0.1123 ****
  2 CH3    26.056000   27.199000   23.335000 C     1 ACE    -0.3662 ****
  3 H2     25.905000   27.671000   22.366000 H     1 ACE     0.1123 ****
  4 H3     26.263000   26.139000   23.205000 H     1 ACE     0.1123 ****
  5 C      27.223000   27.856000   24.034000 C     1 ACE     0.5972 ****
  6 O      27.062000   28.412000   25.113000 O     1 ACE    -0.5679 ****
  7 N      28.402000   27.794000   23.417000 N     2 GLY    -0.4157 ****
  8 H      28.448000   27.346000   22.516000 H     2 GLY     0.2719 ****
  9 CA     29.619000   28.434000   23.926000 C     2 GLY    -0.0252 ****
 10 HA2    29.710000   28.256000   24.998000 H     2 GLY     0.0698 ****
 11 HA3    30.489000   28.000000   23.434000 H     2 GLY     0.0698 ****
 12 C      29.633000   29.941000   23.665000 C     2 GLY     0.5973 ****
 13 O      29.999000   30.364000   22.573000 O     2 GLY    -0.5679 ****
 14 N      29.148000   30.731000   24.630000 N     3 ALA    -0.4157 ****
 15 H      28.706000   30.252000   25.398000 H     3 ALA     0.2719 ****
 16 CA     29.503000   32.134000   24.888000 C     3 ALA     0.0337 ****
 17 HA     28.724000   32.741000   24.426000 H     3 ALA     0.0823 ****
 18 CB     29.425000   32.358000   26.405000 C     3 ALA    -0.1825 ****
 19 HB1    30.196000   31.770000   26.906000 H     3 ALA     0.0603 ****
 20 HB2    29.578000   33.413000   26.636000 H     3 ALA     0.0603 ****
 21 HB3    28.444000   32.058000   26.777000 H     3 ALA     0.0603 ****
 22 C      30.850000   32.646000   24.312000 C     3 ALA     0.5973 ****
 23 O      31.811000   31.900000   24.132000 O     3 ALA    -0.5679 ****
 24 N      30.996000   33.972000   24.240000 N     4 GLY    -0.4157 ****
 25 H      30.215000   34.569000   24.472000 H     4 GLY     0.2719 ****
 26 CA     32.227000   34.641000   23.817000 C     4 GLY    -0.0252 ****
 27 HA2    33.043000   34.350000   24.480000 H     4 GLY     0.0698 ****
 28 HA3    32.478000   34.323000   22.805000 H     4 GLY     0.0698 ****
 29 C      32.098000   36.166000   23.838000 C     4 GLY     0.5973 ****
 30 O      31.058000   36.698000   24.223000 O     4 GLY    -0.5679 ****
 31 N      33.159000   36.866000   23.421000 N     5 NME    -0.4157 ****
 32 H      33.974000   36.355000   23.119000 H     5 NME     0.2719 ****
 33 CH3    33.206000   38.327000   23.375000 C     5 NME    -0.1490 ****
 34 HH31   33.043000   38.733000   24.375000 H     5 NME     0.0976 ****
 35 HH32   34.174000   38.663000   23.003000 H     5 NME     0.0976 ****
 36 HH33   32.418000   38.700000   22.717000 H     5 NME     0.0976 ****
@<TRIPOS>BOND
    1     5     6 1
    2     5     7 1
    3     2     3 1
    4     2     4 1
    5     2     5 1
    6     1     2 1
    7    12    13 1
    8    12    14 1
    9     9    10 1
   10     9    11 1
   11     9    12 1
   12     7     8 1
   13     7     9 1
   14    22    23 1
   15    22    24 1
   16    18    19 1
   17    18    20 1
   18    18    21 1
   19    16    17 1
   20    16    18 1
   21    16    22 1
   22    14    15 1
   23    14    16 1
   24    29    30 1
   25    29    31 1
   26    26    27 1
   27    26    28 1
   28    26    29 1
   29    24    25 1
   30    24    26 1
   31    33    34 1
   32    33    35 1
   33    33    36 1
   34    31    32 1
   35    31    33 1
@<TRIPOS>SUBSTRUCTURE
      1  ACE              1 ****               0 ****  **** 
      2  GLY              7 ****               0 ****  **** 
      3  ALA             14 ****               0 ****  **** 
      4  GLY             24 ****               0 ****  **** 
      5  NME             31 ****               0 ****  **** 
