@<TRIPOS>MOLECULE
default_name
   36    35     5     0     1 
SMALL
USER_CHARGES
@<TRIPOS>ATOM
  1 H1     26.341000   25.335000   22.483000 H     1 ACE     0.1123 ****
  2 CH3    26.264000   26.398000   22.707000 C     1 ACE    -0.3662 ****
  3 H2     25.485000   26.560000   23.449000 H     1 ACE     0.1123 ****
  4 H3     26.033000   26.948000   21.797000 H     1 ACE     0.1123 ****
  5 C      27.586000   26.878000   23.259000 C     1 ACE     0.5972 ****
  6 O      28.521000   26.098000   23.386000 O     1 ACE    -0.5679 ****
  7 N      27.665000   28.165000   23.586000 N     2 GLY    -0.4157 ****
  8 H      26.856000   28.755000   23.455000 H     2 GLY     0.2719 ****
  9 CA     28.864000   28.800000   24.135000 C     2 GLY    -0.0252 ****
 10 HA2    29.134000   28.311000   25.071000 H     2 GLY     0.0698 ****
 11 HA3    29.690000   28.676000   23.434000 H     2 GLY     0.0698 ****
 12 C      28.664000   30.294000   24.401000 C     2 GLY     0.5973 ****
 13 O      27.587000   30.835000   24.156000 O     2 GLY    -0.5679 ****
 14 N      29.707000   30.961000   24.897000 N     3 ALA    -0.4157 ****
 15 H      30.568000   30.462000   25.070000 H     3 ALA     0.2719 ****
 16 CA     29.700000   32.382000   25.246000 C     3 ALA     0.0337 ****
 17 HA     29.041000   32.912000   24.555000 H     3 ALA     0.0823 ****
 18 CB     29.146000   32.555000   26.667000 C     3 ALA    -0.1825 ****
 19 HB1    29.779000   32.025000   27.381000 H     3 ALA     0.0603 ****
 20 HB2    29.123000   33.613000   26.927000 H     3 ALA     0.0603 ****
 21 HB3    28.131000   32.157000   26.720000 H     3 ALA     0.0603 ****
 22 C      31.112000   32.977000   25.115000 C     3 ALA     0.5973 ****
 23 O      32.086000   32.364000   25.550000 O     3 ALA    -0.5679 ****
 24 N      31.233000   34.150000   24.492000 N     4 GLY    -0.4157 ****
 25 H      30.405000   34.615000   24.143000 H     4 GLY     0.2719 ****
 26 CA     32.507000   34.839000   24.276000 C     4 GLY    -0.0252 ****
 27 HA2    32.985000   35.024000   25.239000 H     4 GLY     0.0698 ****
 28 HA3    33.164000   34.204000   23.682000 H     4 GLY     0.0698 ****
 29 C      32.329000   36.177000   23.552000 C     4 GLY     0.5973 ****
 30 O      31.208000   36.562000   23.225000 O     4 GLY    -0.5679 ****
 31 N      33.439000   36.881000   23.303000 N     5 NME    -0.4157 ****
 32 H      34.321000   36.498000   23.602000 H     5 NME     0.2719 ****
 33 CH3    33.447000   38.175000   22.621000 C     5 NME    -0.1490 ****
 34 HH31   32.845000   38.892000   23.184000 H     5 NME     0.0976 ****
 35 HH32   34.467000   38.552000   22.534000 H     5 NME     0.0976 ****
 36 HH33   33.016000   38.069000   21.623000 H     5 NME     0.0976 ****
@<TRIPOS>BOND
    1     5     6 1
    2     5     7 1
    3     2     3 1
    4     2     4 1
    5     2     5 1
    6     1     2 1
    7    12    13 1
    8    12    14 1
    9     9    10 1
   10     9    11 1
   11     9    12 1
   12     7     8 1
   13     7     9 1
   14    22    23 1
   15    22    24 1
   16    18    19 1
   17    18    20 1
   18    18    21 1
   19    16    17 1
   20    16    18 1
   21    16    22 1
   22    14    15 1
   23    14    16 1
   24    29    30 1
   25    29    31 1
   26    26    27 1
   27    26    28 1
   28    26    29 1
   29    24    25 1
   30    24    26 1
   31    33    34 1
   32    33    35 1
   33    33    36 1
   34    31    32 1
   35    31    33 1
@<TRIPOS>SUBSTRUCTURE
      1  ACE              1 ****               0 ****  **** 
      2  GLY              7 ****               0 ****  **** 
      3  ALA             14 ****               0 ****  **** 
      4  GLY             24 ****               0 ****  **** 
      5  NME             31 ****               0 ****  **** 
