@<TRIPOS>MOLECULE
default_name
   36    35     5     0     1 
SMALL
USER_CHARGES
@<TRIPOS>ATOM
  1 H1     28.472000   25.362000   22.406000 H     1 ACE     0.1123 ****
  2 CH3    28.123000   26.392000   22.346000 C     1 ACE    -0.3662 ****
  3 H2     27.037000   26.415000   22.413000 H     1 ACE     0.1123 ****
  4 H3     28.447000   26.835000   21.406000 H     1 ACE     0.1123 ****
  5 C      28.711000   27.176000   23.496000 C     1 ACE     0.5972 ****
  6 O      29.450000   26.627000   24.303000 O     1 ACE    -0.5679 ****
  7 N      28.384000   28.463000   23.572000 N     2 GLY    -0.4157 ****
  8 H      27.769000   28.857000   22.873000 H     2 GLY     0.2719 ****
  9 CA     28.860000   29.369000   24.617000 C     2 GLY    -0.0252 ****
 10 HA2    28.544000   28.993000   25.590000 H     2 GLY     0.0698 ****
 11 HA3    29.950000   29.397000   24.598000 H     2 GLY     0.0698 ****
 12 C      28.327000   30.793000   24.442000 C     2 GLY     0.5973 ****
 13 O      27.566000   31.063000   23.518000 O     2 GLY    -0.5679 ****
 14 N      28.727000   31.697000   25.341000 N     3 ALA    -0.4157 ****
 15 H      29.337000   31.389000   26.081000 H     3 ALA     0.2719 ****
 16 CA     28.356000   33.115000   25.313000 C     3 ALA     0.0337 ****
 17 HA     27.288000   33.178000   25.094000 H     3 ALA     0.0823 ****
 18 CB     28.576000   33.720000   26.708000 C     3 ALA    -0.1825 ****
 19 HB1    29.623000   33.642000   27.003000 H     3 ALA     0.0603 ****
 20 HB2    28.284000   34.771000   26.698000 H     3 ALA     0.0603 ****
 21 HB3    27.959000   33.194000   27.438000 H     3 ALA     0.0603 ****
 22 C      29.069000   33.895000   24.187000 C     3 ALA     0.5973 ****
 23 O      28.454000   34.277000   23.197000 O     3 ALA    -0.5679 ****
 24 N      30.361000   34.183000   24.362000 N     4 GLY    -0.4157 ****
 25 H      30.826000   33.869000   25.201000 H     4 GLY     0.2719 ****
 26 CA     31.180000   34.923000   23.401000 C     4 GLY    -0.0252 ****
 27 HA2    31.162000   34.408000   22.440000 H     4 GLY     0.0698 ****
 28 HA3    30.764000   35.921000   23.264000 H     4 GLY     0.0698 ****
 29 C      32.634000   35.052000   23.864000 C     4 GLY     0.5973 ****
 30 O      32.987000   34.573000   24.941000 O     4 GLY    -0.5679 ****
 31 N      33.473000   35.699000   23.048000 N     5 NME    -0.4157 ****
 32 H      33.106000   36.061000   22.182000 H     5 NME     0.2719 ****
 33 CH3    34.890000   35.910000   23.336000 C     5 NME    -0.1490 ****
 34 HH31   34.999000   36.473000   24.265000 H     5 NME     0.0976 ****
 35 HH32   35.390000   34.946000   23.454000 H     5 NME     0.0976 ****
 36 HH33   35.364000   36.463000   22.524000 H     5 NME     0.0976 ****
@<TRIPOS>BOND
    1     5     6 1
    2     5     7 1
    3     2     3 1
    4     2     4 1
    5     2     5 1
    6     1     2 1
    7    12    13 1
    8    12    14 1
    9     9    10 1
   10     9    11 1
   11     9    12 1
   12     7     8 1
   13     7     9 1
   14    22    23 1
   15    22    24 1
   16    18    19 1
   17    18    20 1
   18    18    21 1
   19    16    17 1
   20    16    18 1
   21    16    22 1
   22    14    15 1
   23    14    16 1
   24    29    30 1
   25    29    31 1
   26    26    27 1
   27    26    28 1
   28    26    29 1
   29    24    25 1
   30    24    26 1
   31    33    34 1
   32    33    35 1
   33    33    36 1
   34    31    32 1
   35    31    33 1
@<TRIPOS>SUBSTRUCTURE
      1  ACE              1 ****               0 ****  **** 
      2  GLY              7 ****               0 ****  **** 
      3  ALA             14 ****               0 ****  **** 
      4  GLY             24 ****               0 ****  **** 
      5  NME             31 ****               0 ****  **** 
