@<TRIPOS>MOLECULE
default_name
   36    35     5     0     1 
SMALL
USER_CHARGES
@<TRIPOS>ATOM
  1 H1     25.891000   27.337000   25.182000 H     1 ACE     0.1123 ****
  2 CH3    26.432000   27.343000   24.237000 C     1 ACE    -0.3662 ****
  3 H2     25.845000   27.869000   23.485000 H     1 ACE     0.1123 ****
  4 H3     26.617000   26.320000   23.917000 H     1 ACE     0.1123 ****
  5 C      27.750000   28.055000   24.432000 C     1 ACE     0.5972 ****
  6 O      28.048000   28.511000   25.528000 O     1 ACE    -0.5679 ****
  7 N      28.542000   28.153000   23.366000 N     2 GLY    -0.4157 ****
  8 H      28.217000   27.772000   22.492000 H     2 GLY     0.2719 ****
  9 CA     29.831000   28.851000   23.377000 C     2 GLY    -0.0252 ****
 10 HA2    30.399000   28.559000   24.261000 H     2 GLY     0.0698 ****
 11 HA3    30.404000   28.567000   22.495000 H     2 GLY     0.0698 ****
 12 C      29.667000   30.373000   23.369000 C     2 GLY     0.5973 ****
 13 O      29.584000   30.974000   22.302000 O     2 GLY    -0.5679 ****
 14 N      29.620000   30.992000   24.550000 N     3 ALA    -0.4157 ****
 15 H      29.634000   30.421000   25.382000 H     3 ALA     0.2719 ****
 16 CA     29.515000   32.440000   24.735000 C     3 ALA     0.0337 ****
 17 HA     28.746000   32.820000   24.060000 H     3 ALA     0.0823 ****
 18 CB     29.042000   32.702000   26.172000 C     3 ALA    -0.1825 ****
 19 HB1    29.774000   32.318000   26.885000 H     3 ALA     0.0603 ****
 20 HB2    28.926000   33.775000   26.329000 H     3 ALA     0.0603 ****
 21 HB3    28.083000   32.213000   26.343000 H     3 ALA     0.0603 ****
 22 C      30.835000   33.170000   24.396000 C     3 ALA     0.5973 ****
 23 O      31.686000   33.372000   25.261000 O     3 ALA    -0.5679 ****
 24 N      31.023000   33.552000   23.129000 N     4 GLY    -0.4157 ****
 25 H      30.305000   33.339000   22.452000 H     4 GLY     0.2719 ****
 26 CA     32.201000   34.289000   22.661000 C     4 GLY    -0.0252 ****
 27 HA2    33.104000   33.846000   23.084000 H     4 GLY     0.0698 ****
 28 HA3    32.262000   34.214000   21.575000 H     4 GLY     0.0698 ****
 29 C      32.149000   35.773000   23.033000 C     4 GLY     0.5973 ****
 30 O      31.628000   36.577000   22.266000 O     4 GLY    -0.5679 ****
 31 N      32.694000   36.133000   24.201000 N     5 NME    -0.4157 ****
 32 H      33.048000   35.398000   24.796000 H     5 NME     0.2719 ****
 33 CH3    32.732000   37.506000   24.700000 C     5 NME    -0.1490 ****
 34 HH31   31.715000   37.893000   24.786000 H     5 NME     0.0976 ****
 35 HH32   33.212000   37.537000   25.679000 H     5 NME     0.0976 ****
 36 HH33   33.288000   38.136000   24.004000 H     5 NME     0.0976 ****
@<TRIPOS>BOND
    1     5     6 1
    2     5     7 1
    3     2     3 1
    4     2     4 1
    5     2     5 1
    6     1     2 1
    7    12    13 1
    8    12    14 1
    9     9    10 1
   10     9    11 1
   11     9    12 1
   12     7     8 1
   13     7     9 1
   14    22    23 1
   15    22    24 1
   16    18    19 1
   17    18    20 1
   18    18    21 1
   19    16    17 1
   20    16    18 1
   21    16    22 1
   22    14    15 1
   23    14    16 1
   24    29    30 1
   25    29    31 1
   26    26    27 1
   27    26    28 1
   28    26    29 1
   29    24    25 1
   30    24    26 1
   31    33    34 1
   32    33    35 1
   33    33    36 1
   34    31    32 1
   35    31    33 1
@<TRIPOS>SUBSTRUCTURE
      1  ACE              1 ****               0 ****  **** 
      2  GLY              7 ****               0 ****  **** 
      3  ALA             14 ****               0 ****  **** 
      4  GLY             24 ****               0 ****  **** 
      5  NME             31 ****               0 ****  **** 
