@<TRIPOS>MOLECULE
default_name
   36    35     5     0     1 
SMALL
USER_CHARGES
@<TRIPOS>ATOM
  1 H1     25.396000   27.260000   24.321000 H     1 ACE     0.1123 ****
  2 CH3    26.157000   27.256000   23.542000 C     1 ACE    -0.3662 ****
  3 H2     25.812000   27.843000   22.693000 H     1 ACE     0.1123 ****
  4 H3     26.355000   26.232000   23.231000 H     1 ACE     0.1123 ****
  5 C      27.424000   27.867000   24.092000 C     1 ACE     0.5972 ****
  6 O      27.463000   28.268000   25.248000 O     1 ACE    -0.5679 ****
  7 N      28.463000   27.939000   23.262000 N     2 GLY    -0.4157 ****
  8 H      28.344000   27.609000   22.318000 H     2 GLY     0.2719 ****
  9 CA     29.747000   28.549000   23.620000 C     2 GLY    -0.0252 ****
 10 HA2    30.055000   28.207000   24.609000 H     2 GLY     0.0698 ****
 11 HA3    30.508000   28.241000   22.902000 H     2 GLY     0.0698 ****
 12 C      29.685000   30.077000   23.619000 C     2 GLY     0.5973 ****
 13 O      29.917000   30.701000   22.586000 O     2 GLY    -0.5679 ****
 14 N      29.355000   30.678000   24.764000 N     3 ALA    -0.4157 ****
 15 H      29.120000   30.098000   25.555000 H     3 ALA     0.2719 ****
 16 CA     29.445000   32.122000   24.974000 C     3 ALA     0.0337 ****
 17 HA     28.806000   32.607000   24.234000 H     3 ALA     0.0823 ****
 18 CB     28.897000   32.451000   26.368000 C     3 ALA    -0.1825 ****
 19 HB1    29.521000   31.982000   27.131000 H     3 ALA     0.0603 ****
 20 HB2    28.900000   33.530000   26.522000 H     3 ALA     0.0603 ****
 21 HB3    27.875000   32.082000   26.462000 H     3 ALA     0.0603 ****
 22 C      30.878000   32.663000   24.777000 C     3 ALA     0.5973 ****
 23 O      31.862000   31.973000   25.044000 O     3 ALA    -0.5679 ****
 24 N      30.997000   33.930000   24.373000 N     4 GLY    -0.4157 ****
 25 H      30.164000   34.469000   24.184000 H     4 GLY     0.2719 ****
 26 CA     32.278000   34.602000   24.148000 C     4 GLY    -0.0252 ****
 27 HA2    32.866000   34.576000   25.065000 H     4 GLY     0.0698 ****
 28 HA3    32.828000   34.070000   23.371000 H     4 GLY     0.0698 ****
 29 C      32.103000   36.060000   23.717000 C     4 GLY     0.5973 ****
 30 O      30.983000   36.564000   23.656000 O     4 GLY    -0.5679 ****
 31 N      33.218000   36.737000   23.418000 N     5 NME    -0.4157 ****
 32 H      34.099000   36.253000   23.490000 H     5 NME     0.2719 ****
 33 CH3    33.233000   38.135000   22.988000 C     5 NME    -0.1490 ****
 34 HH31   32.785000   38.763000   23.761000 H     5 NME     0.0976 ****
 35 HH32   34.257000   38.464000   22.806000 H     5 NME     0.0976 ****
 36 HH33   32.651000   38.244000   22.072000 H     5 NME     0.0976 ****
@<TRIPOS>BOND
    1     5     6 1
    2     5     7 1
    3     2     3 1
    4     2     4 1
    5     2     5 1
    6     1     2 1
    7    12    13 1
    8    12    14 1
    9     9    10 1
   10     9    11 1
   11     9    12 1
   12     7     8 1
   13     7     9 1
   14    22    23 1
   15    22    24 1
   16    18    19 1
   17    18    20 1
   18    18    21 1
   19    16    17 1
   20    16    18 1
   21    16    22 1
   22    14    15 1
   23    14    16 1
   24    29    30 1
   25    29    31 1
   26    26    27 1
   27    26    28 1
   28    26    29 1
   29    24    25 1
   30    24    26 1
   31    33    34 1
   32    33    35 1
   33    33    36 1
   34    31    32 1
   35    31    33 1
@<TRIPOS>SUBSTRUCTURE
      1  ACE              1 ****               0 ****  **** 
      2  GLY              7 ****               0 ****  **** 
      3  ALA             14 ****               0 ****  **** 
      4  GLY             24 ****               0 ****  **** 
      5  NME             31 ****               0 ****  **** 
