@<TRIPOS>MOLECULE
default_name
   36    35     5     0     1 
SMALL
USER_CHARGES
@<TRIPOS>ATOM
  1 H1     26.584000   25.462000   22.127000 H     1 ACE     0.1123 ****
  2 CH3    26.544000   26.542000   22.263000 C     1 ACE    -0.3662 ****
  3 H2     25.568000   26.825000   22.652000 H     1 ACE     0.1123 ****
  4 H3     26.724000   27.038000   21.312000 H     1 ACE     0.1123 ****
  5 C      27.613000   26.951000   23.249000 C     1 ACE     0.5972 ****
  6 O      28.346000   26.107000   23.749000 O     1 ACE    -0.5679 ****
  7 N      27.700000   28.247000   23.531000 N     2 GLY    -0.4157 ****
  8 H      27.062000   28.892000   23.087000 H     2 GLY     0.2719 ****
  9 CA     28.678000   28.823000   24.454000 C     2 GLY    -0.0252 ****
 10 HA2    28.584000   28.343000   25.428000 H     2 GLY     0.0698 ****
 11 HA3    29.683000   28.635000   24.073000 H     2 GLY     0.0698 ****
 12 C      28.497000   30.333000   24.628000 C     2 GLY     0.5973 ****
 13 O      27.572000   30.921000   24.071000 O     2 GLY    -0.5679 ****
 14 N      29.364000   30.952000   25.436000 N     3 ALA    -0.4157 ****
 15 H      30.083000   30.400000   25.871000 H     3 ALA     0.2719 ****
 16 CA     29.494000   32.411000   25.505000 C     3 ALA     0.0337 ****
 17 HA     28.496000   32.854000   25.521000 H     3 ALA     0.0823 ****
 18 CB     30.179000   32.733000   26.845000 C     3 ALA    -0.1825 ****
 19 HB1    31.206000   32.363000   26.842000 H     3 ALA     0.0603 ****
 20 HB2    30.183000   33.809000   27.019000 H     3 ALA     0.0603 ****
 21 HB3    29.631000   32.261000   27.663000 H     3 ALA     0.0603 ****
 22 C      30.232000   32.993000   24.269000 C     3 ALA     0.5973 ****
 23 O      30.242000   32.402000   23.192000 O     3 ALA    -0.5679 ****
 24 N      30.930000   34.121000   24.433000 N     4 GLY    -0.4157 ****
 25 H      30.934000   34.570000   25.339000 H     4 GLY     0.2719 ****
 26 CA     31.708000   34.774000   23.380000 C     4 GLY    -0.0252 ****
 27 HA2    32.456000   34.079000   22.997000 H     4 GLY     0.0698 ****
 28 HA3    31.044000   35.050000   22.560000 H     4 GLY     0.0698 ****
 29 C      32.420000   36.033000   23.883000 C     4 GLY     0.5973 ****
 30 O      32.322000   36.373000   25.062000 O     4 GLY    -0.5679 ****
 31 N      33.137000   36.721000   22.987000 N     5 NME    -0.4157 ****
 32 H      33.167000   36.377000   22.040000 H     5 NME     0.2719 ****
 33 CH3    33.876000   37.943000   23.299000 C     5 NME    -0.1490 ****
 34 HH31   33.189000   38.705000   23.672000 H     5 NME     0.0976 ****
 35 HH32   34.618000   37.737000   24.074000 H     5 NME     0.0976 ****
 36 HH33   34.381000   38.319000   22.408000 H     5 NME     0.0976 ****
@<TRIPOS>BOND
    1     5     6 1
    2     5     7 1
    3     2     3 1
    4     2     4 1
    5     2     5 1
    6     1     2 1
    7    12    13 1
    8    12    14 1
    9     9    10 1
   10     9    11 1
   11     9    12 1
   12     7     8 1
   13     7     9 1
   14    22    23 1
   15    22    24 1
   16    18    19 1
   17    18    20 1
   18    18    21 1
   19    16    17 1
   20    16    18 1
   21    16    22 1
   22    14    15 1
   23    14    16 1
   24    29    30 1
   25    29    31 1
   26    26    27 1
   27    26    28 1
   28    26    29 1
   29    24    25 1
   30    24    26 1
   31    33    34 1
   32    33    35 1
   33    33    36 1
   34    31    32 1
   35    31    33 1
@<TRIPOS>SUBSTRUCTURE
      1  ACE              1 ****               0 ****  **** 
      2  GLY              7 ****               0 ****  **** 
      3  ALA             14 ****               0 ****  **** 
      4  GLY             24 ****               0 ****  **** 
      5  NME             31 ****               0 ****  **** 
