@<TRIPOS>MOLECULE
default_name
   36    35     5     0     1 
SMALL
USER_CHARGES
@<TRIPOS>ATOM
  1 H1     27.426000   26.946000   24.054000 H     1 ACE     0.1123 ****
  2 CH3    28.385000   27.221000   23.616000 C     1 ACE    -0.3662 ****
  3 H2     28.590000   26.581000   22.760000 H     1 ACE     0.1123 ****
  4 H3     29.170000   27.110000   24.362000 H     1 ACE     0.1123 ****
  5 C      28.322000   28.660000   23.164000 C     1 ACE     0.5972 ****
  6 O      27.298000   29.313000   23.320000 O     1 ACE    -0.5679 ****
  7 N      29.422000   29.161000   22.603000 N     2 GLY    -0.4157 ****
  8 H      30.233000   28.570000   22.529000 H     2 GLY     0.2719 ****
  9 CA     29.536000   30.551000   22.150000 C     2 GLY    -0.0252 ****
 10 HA2    30.419000   30.654000   21.520000 H     2 GLY     0.0698 ****
 11 HA3    28.661000   30.816000   21.556000 H     2 GLY     0.0698 ****
 12 C      29.667000   31.532000   23.318000 C     2 GLY     0.5973 ****
 13 O      30.772000   31.746000   23.804000 O     2 GLY    -0.5679 ****
 14 N      28.541000   32.099000   23.761000 N     3 ALA    -0.4157 ****
 15 H      27.687000   31.769000   23.336000 H     3 ALA     0.2719 ****
 16 CA     28.382000   33.133000   24.794000 C     3 ALA     0.0337 ****
 17 HA     27.523000   33.740000   24.502000 H     3 ALA     0.0823 ****
 18 CB     28.000000   32.441000   26.114000 C     3 ALA    -0.1825 ****
 19 HB1    28.796000   31.767000   26.434000 H     3 ALA     0.0603 ****
 20 HB2    27.826000   33.191000   26.887000 H     3 ALA     0.0603 ****
 21 HB3    27.086000   31.863000   25.974000 H     3 ALA     0.0603 ****
 22 C      29.550000   34.137000   24.952000 C     3 ALA     0.5973 ****
 23 O      29.514000   35.200000   24.341000 O     3 ALA    -0.5679 ****
 24 N      30.567000   33.831000   25.766000 N     4 GLY    -0.4157 ****
 25 H      30.588000   32.897000   26.145000 H     4 GLY     0.2719 ****
 26 CA     31.678000   34.736000   26.109000 C     4 GLY    -0.0252 ****
 27 HA2    31.267000   35.720000   26.334000 H     4 GLY     0.0698 ****
 28 HA3    32.170000   34.364000   27.007000 H     4 GLY     0.0698 ****
 29 C      32.760000   34.930000   25.034000 C     4 GLY     0.5973 ****
 30 O      33.821000   35.460000   25.349000 O     4 GLY    -0.5679 ****
 31 N      32.529000   34.483000   23.794000 N     5 NME    -0.4157 ****
 32 H      31.624000   34.074000   23.616000 H     5 NME     0.2719 ****
 33 CH3    33.477000   34.581000   22.688000 C     5 NME    -0.1490 ****
 34 HH31   33.074000   34.085000   21.804000 H     5 NME     0.0976 ****
 35 HH32   33.666000   35.631000   22.460000 H     5 NME     0.0976 ****
 36 HH33   34.420000   34.108000   22.969000 H     5 NME     0.0976 ****
@<TRIPOS>BOND
    1     5     6 1
    2     5     7 1
    3     2     3 1
    4     2     4 1
    5     2     5 1
    6     1     2 1
    7    12    13 1
    8    12    14 1
    9     9    10 1
   10     9    11 1
   11     9    12 1
   12     7     8 1
   13     7     9 1
   14    22    23 1
   15    22    24 1
   16    18    19 1
   17    18    20 1
   18    18    21 1
   19    16    17 1
   20    16    18 1
   21    16    22 1
   22    14    15 1
   23    14    16 1
   24    29    30 1
   25    29    31 1
   26    26    27 1
   27    26    28 1
   28    26    29 1
   29    24    25 1
   30    24    26 1
   31    33    34 1
   32    33    35 1
   33    33    36 1
   34    31    32 1
   35    31    33 1
@<TRIPOS>SUBSTRUCTURE
      1  ACE              1 ****               0 ****  **** 
      2  GLY              7 ****               0 ****  **** 
      3  ALA             14 ****               0 ****  **** 
      4  GLY             24 ****               0 ****  **** 
      5  NME             31 ****               0 ****  **** 
