@<TRIPOS>MOLECULE
default_name
   43    42     5     0     1 
SMALL
USER_CHARGES
@<TRIPOS>ATOM
  1 H1     26.985000   25.646000   22.375000 H     1 ACE     0.1123 ****
  2 CH3    26.738000   26.580000   22.878000 C     1 ACE    -0.3662 ****
  3 H2     26.577000   26.394000   23.938000 H     1 ACE     0.1123 ****
  4 H3     25.840000   27.007000   22.435000 H     1 ACE     0.1123 ****
  5 C      27.887000   27.546000   22.708000 C     1 ACE     0.5972 ****
  6 O      28.884000   27.212000   22.081000 O     1 ACE    -0.5679 ****
  7 N      27.747000   28.742000   23.274000 N     2 ALA    -0.4157 ****
  8 H      26.913000   28.931000   23.809000 H     2 ALA     0.2719 ****
  9 CA     28.755000   29.802000   23.237000 C     2 ALA     0.0337 ****
 10 HA     29.746000   29.345000   23.221000 H     2 ALA     0.0823 ****
 11 CB     28.575000   30.617000   21.948000 C     2 ALA    -0.1825 ****
 12 HB1    27.590000   31.086000   21.938000 H     2 ALA     0.0603 ****
 13 HB2    29.340000   31.391000   21.883000 H     2 ALA     0.0603 ****
 14 HB3    28.668000   29.961000   21.081000 H     2 ALA     0.0603 ****
 15 C      28.666000   30.695000   24.489000 C     2 ALA     0.5973 ****
 16 O      27.641000   30.719000   25.168000 O     2 ALA    -0.5679 ****
 17 N      29.734000   31.449000   24.769000 N     3 ALA    -0.4157 ****
 18 H      30.536000   31.350000   24.169000 H     3 ALA     0.2719 ****
 19 CA     29.885000   32.266000   25.985000 C     3 ALA     0.0337 ****
 20 HA     28.954000   32.808000   26.160000 H     3 ALA     0.0823 ****
 21 CB     30.136000   31.324000   27.176000 C     3 ALA    -0.1825 ****
 22 HB1    31.069000   30.778000   27.034000 H     3 ALA     0.0603 ****
 23 HB2    30.201000   31.904000   28.098000 H     3 ALA     0.0603 ****
 24 HB3    29.314000   30.614000   27.279000 H     3 ALA     0.0603 ****
 25 C      31.016000   33.319000   25.870000 C     3 ALA     0.5973 ****
 26 O      31.498000   33.841000   26.871000 O     3 ALA    -0.5679 ****
 27 N      31.462000   33.621000   24.647000 N     4 SER    -0.4157 ****
 28 H      30.987000   33.225000   23.849000 H     4 SER     0.2719 ****
 29 CA     32.468000   34.643000   24.327000 C     4 SER    -0.0249 ****
 30 HA     32.264000   35.539000   24.916000 H     4 SER     0.0843 ****
 31 CB     33.870000   34.138000   24.693000 C     4 SER     0.2117 ****
 32 HB2    33.881000   33.830000   25.739000 H     4 SER     0.0352 ****
 33 HB3    34.124000   33.279000   24.069000 H     4 SER     0.0352 ****
 34 OG     34.833000   35.160000   24.511000 O     4 SER    -0.6546 ****
 35 HG     35.659000   34.875000   24.914000 H     4 SER     0.4275 ****
 36 C      32.374000   35.012000   22.838000 C     4 SER     0.5973 ****
 37 O      31.704000   34.310000   22.077000 O     4 SER    -0.5679 ****
 38 N      33.024000   36.103000   22.422000 N     5 NME    -0.4157 ****
 39 H      33.621000   36.561000   23.099000 H     5 NME     0.2719 ****
 40 CH3    33.014000   36.601000   21.048000 C     5 NME    -0.1490 ****
 41 HH31   31.989000   36.819000   20.743000 H     5 NME     0.0976 ****
 42 HH32   33.613000   37.510000   20.973000 H     5 NME     0.0976 ****
 43 HH33   33.424000   35.843000   20.379000 H     5 NME     0.0976 ****
@<TRIPOS>BOND
    1     5     6 1
    2     5     7 1
    3     2     3 1
    4     2     4 1
    5     2     5 1
    6     1     2 1
    7    15    16 1
    8    15    17 1
    9    11    12 1
   10    11    13 1
   11    11    14 1
   12     9    10 1
   13     9    11 1
   14     9    15 1
   15     7     8 1
   16     7     9 1
   17    25    26 1
   18    25    27 1
   19    21    22 1
   20    21    23 1
   21    21    24 1
   22    19    20 1
   23    19    21 1
   24    19    25 1
   25    17    18 1
   26    17    19 1
   27    36    37 1
   28    36    38 1
   29    34    35 1
   30    31    32 1
   31    31    33 1
   32    31    34 1
   33    29    30 1
   34    29    31 1
   35    29    36 1
   36    27    28 1
   37    27    29 1
   38    40    41 1
   39    40    42 1
   40    40    43 1
   41    38    39 1
   42    38    40 1
@<TRIPOS>SUBSTRUCTURE
      1  ACE              1 ****               0 ****  **** 
      2  ALA              7 ****               0 ****  **** 
      3  ALA             17 ****               0 ****  **** 
      4  SER             27 ****               0 ****  **** 
      5  NME             38 ****               0 ****  **** 
