@<TRIPOS>MOLECULE
default_name
   43    42     5     0     1 
SMALL
USER_CHARGES
@<TRIPOS>ATOM
  1 H1     25.838000   26.538000   22.144000 H     1 ACE     0.1123 ****
  2 CH3    25.997000   27.601000   22.325000 C     1 ACE    -0.3662 ****
  3 H2     25.299000   27.951000   23.082000 H     1 ACE     0.1123 ****
  4 H3     25.851000   28.155000   21.399000 H     1 ACE     0.1123 ****
  5 C      27.411000   27.807000   22.813000 C     1 ACE     0.5972 ****
  6 O      28.163000   26.851000   22.944000 O     1 ACE    -0.5679 ****
  7 N      27.769000   29.059000   23.089000 N     2 ALA    -0.4157 ****
  8 H      27.083000   29.793000   22.990000 H     2 ALA     0.2719 ****
  9 CA     29.084000   29.457000   23.591000 C     2 ALA     0.0337 ****
 10 HA     29.475000   28.658000   24.224000 H     2 ALA     0.0823 ****
 11 CB     30.035000   29.646000   22.399000 C     2 ALA    -0.1825 ****
 12 HB1    29.665000   30.441000   21.750000 H     2 ALA     0.0603 ****
 13 HB2    31.032000   29.909000   22.754000 H     2 ALA     0.0603 ****
 14 HB3    30.101000   28.718000   21.829000 H     2 ALA     0.0603 ****
 15 C      28.989000   30.736000   24.442000 C     2 ALA     0.5973 ****
 16 O      28.022000   31.488000   24.336000 O     2 ALA    -0.5679 ****
 17 N      30.014000   30.998000   25.259000 N     3 ALA    -0.4157 ****
 18 H      30.773000   30.337000   25.294000 H     3 ALA     0.2719 ****
 19 CA     30.090000   32.154000   26.157000 C     3 ALA     0.0337 ****
 20 HA     29.227000   32.801000   25.991000 H     3 ALA     0.0823 ****
 21 CB     30.011000   31.649000   27.605000 C     3 ALA    -0.1825 ****
 22 HB1    30.859000   30.998000   27.824000 H     3 ALA     0.0603 ****
 23 HB2    30.032000   32.498000   28.290000 H     3 ALA     0.0603 ****
 24 HB3    29.082000   31.098000   27.756000 H     3 ALA     0.0603 ****
 25 C      31.340000   33.006000   25.856000 C     3 ALA     0.5973 ****
 26 O      32.246000   33.132000   26.677000 O     3 ALA    -0.5679 ****
 27 N      31.410000   33.550000   24.638000 N     4 SER    -0.4157 ****
 28 H      30.627000   33.424000   24.008000 H     4 SER     0.2719 ****
 29 CA     32.480000   34.440000   24.167000 C     4 SER    -0.0249 ****
 30 HA     32.726000   35.146000   24.961000 H     4 SER     0.0843 ****
 31 CB     33.740000   33.625000   23.846000 C     4 SER     0.2117 ****
 32 HB2    34.012000   33.024000   24.715000 H     4 SER     0.0352 ****
 33 HB3    33.541000   32.960000   23.005000 H     4 SER     0.0352 ****
 34 OG     34.823000   34.481000   23.531000 O     4 SER    -0.6546 ****
 35 HG     35.626000   33.953000   23.485000 H     4 SER     0.4275 ****
 36 C      32.012000   35.241000   22.942000 C     4 SER     0.5973 ****
 37 O      31.001000   34.894000   22.331000 O     4 SER    -0.5679 ****
 38 N      32.733000   36.309000   22.585000 N     5 NME    -0.4157 ****
 39 H      33.598000   36.461000   23.087000 H     5 NME     0.2719 ****
 40 CH3    32.411000   37.188000   21.463000 C     5 NME    -0.1490 ****
 41 HH31   31.417000   37.616000   21.604000 H     5 NME     0.0976 ****
 42 HH32   33.144000   37.993000   21.393000 H     5 NME     0.0976 ****
 43 HH33   32.415000   36.614000   20.534000 H     5 NME     0.0976 ****
@<TRIPOS>BOND
    1     5     6 1
    2     5     7 1
    3     2     3 1
    4     2     4 1
    5     2     5 1
    6     1     2 1
    7    15    16 1
    8    15    17 1
    9    11    12 1
   10    11    13 1
   11    11    14 1
   12     9    10 1
   13     9    11 1
   14     9    15 1
   15     7     8 1
   16     7     9 1
   17    25    26 1
   18    25    27 1
   19    21    22 1
   20    21    23 1
   21    21    24 1
   22    19    20 1
   23    19    21 1
   24    19    25 1
   25    17    18 1
   26    17    19 1
   27    36    37 1
   28    36    38 1
   29    34    35 1
   30    31    32 1
   31    31    33 1
   32    31    34 1
   33    29    30 1
   34    29    31 1
   35    29    36 1
   36    27    28 1
   37    27    29 1
   38    40    41 1
   39    40    42 1
   40    40    43 1
   41    38    39 1
   42    38    40 1
@<TRIPOS>SUBSTRUCTURE
      1  ACE              1 ****               0 ****  **** 
      2  ALA              7 ****               0 ****  **** 
      3  ALA             17 ****               0 ****  **** 
      4  SER             27 ****               0 ****  **** 
      5  NME             38 ****               0 ****  **** 
