@<TRIPOS>MOLECULE
default_name
   43    42     5     0     1 
SMALL
USER_CHARGES
@<TRIPOS>ATOM
  1 H1     25.683000   26.246000   22.704000 H     1 ACE     0.1123 ****
  2 CH3    25.886000   27.314000   22.765000 C     1 ACE    -0.3662 ****
  3 H2     25.239000   27.766000   23.514000 H     1 ACE     0.1123 ****
  4 H3     25.711000   27.775000   21.795000 H     1 ACE     0.1123 ****
  5 C      27.329000   27.516000   23.162000 C     1 ACE     0.5972 ****
  6 O      28.055000   26.550000   23.355000 O     1 ACE    -0.5679 ****
  7 N      27.741000   28.776000   23.288000 N     2 ALA    -0.4157 ****
  8 H      27.074000   29.520000   23.148000 H     2 ALA     0.2719 ****
  9 CA     29.091000   29.173000   23.686000 C     2 ALA     0.0337 ****
 10 HA     29.485000   28.432000   24.384000 H     2 ALA     0.0823 ****
 11 CB     29.990000   29.199000   22.441000 C     2 ALA    -0.1825 ****
 12 HB1    29.615000   29.932000   21.726000 H     2 ALA     0.0603 ****
 13 HB2    31.010000   29.461000   22.722000 H     2 ALA     0.0603 ****
 14 HB3    30.000000   28.213000   21.973000 H     2 ALA     0.0603 ****
 15 C      29.078000   30.538000   24.400000 C     2 ALA     0.5973 ****
 16 O      28.134000   31.312000   24.254000 O     2 ALA    -0.5679 ****
 17 N      30.144000   30.843000   25.145000 N     3 ALA    -0.4157 ****
 18 H      30.889000   30.167000   25.212000 H     3 ALA     0.2719 ****
 19 CA     30.294000   32.075000   25.920000 C     3 ALA     0.0337 ****
 20 HA     29.440000   32.731000   25.742000 H     3 ALA     0.0823 ****
 21 CB     30.291000   31.715000   27.413000 C     3 ALA    -0.1825 ****
 22 HB1    31.122000   31.046000   27.642000 H     3 ALA     0.0603 ****
 23 HB2    30.392000   32.623000   28.008000 H     3 ALA     0.0603 ****
 24 HB3    29.351000   31.225000   27.673000 H     3 ALA     0.0603 ****
 25 C      31.557000   32.837000   25.478000 C     3 ALA     0.5973 ****
 26 O      32.649000   32.615000   25.997000 O     3 ALA    -0.5679 ****
 27 N      31.419000   33.698000   24.467000 N     4 SER    -0.4157 ****
 28 H      30.496000   33.854000   24.080000 H     4 SER     0.2719 ****
 29 CA     32.496000   34.551000   23.947000 C     4 SER    -0.0249 ****
 30 HA     33.073000   34.934000   24.789000 H     4 SER     0.0843 ****
 31 CB     33.433000   33.727000   23.054000 C     4 SER     0.2117 ****
 32 HB2    33.643000   32.764000   23.523000 H     4 SER     0.0352 ****
 33 HB3    32.954000   33.550000   22.090000 H     4 SER     0.0352 ****
 34 OG     34.654000   34.415000   22.865000 O     4 SER    -0.6546 ****
 35 HG     35.274000   34.112000   23.538000 H     4 SER     0.4275 ****
 36 C      31.924000   35.757000   23.182000 C     4 SER     0.5973 ****
 37 O      30.710000   35.856000   23.008000 O     4 SER    -0.5679 ****
 38 N      32.787000   36.673000   22.730000 N     5 NME    -0.4157 ****
 39 H      33.771000   36.462000   22.835000 H     5 NME     0.2719 ****
 40 CH3    32.406000   37.882000   22.003000 C     5 NME    -0.1490 ****
 41 HH31   31.740000   38.488000   22.620000 H     5 NME     0.0976 ****
 42 HH32   33.293000   38.464000   21.749000 H     5 NME     0.0976 ****
 43 HH33   31.879000   37.609000   21.086000 H     5 NME     0.0976 ****
@<TRIPOS>BOND
    1     5     6 1
    2     5     7 1
    3     2     3 1
    4     2     4 1
    5     2     5 1
    6     1     2 1
    7    15    16 1
    8    15    17 1
    9    11    12 1
   10    11    13 1
   11    11    14 1
   12     9    10 1
   13     9    11 1
   14     9    15 1
   15     7     8 1
   16     7     9 1
   17    25    26 1
   18    25    27 1
   19    21    22 1
   20    21    23 1
   21    21    24 1
   22    19    20 1
   23    19    21 1
   24    19    25 1
   25    17    18 1
   26    17    19 1
   27    36    37 1
   28    36    38 1
   29    34    35 1
   30    31    32 1
   31    31    33 1
   32    31    34 1
   33    29    30 1
   34    29    31 1
   35    29    36 1
   36    27    28 1
   37    27    29 1
   38    40    41 1
   39    40    42 1
   40    40    43 1
   41    38    39 1
   42    38    40 1
@<TRIPOS>SUBSTRUCTURE
      1  ACE              1 ****               0 ****  **** 
      2  ALA              7 ****               0 ****  **** 
      3  ALA             17 ****               0 ****  **** 
      4  SER             27 ****               0 ****  **** 
      5  NME             38 ****               0 ****  **** 
