@<TRIPOS>MOLECULE
default_name
   43    42     5     0     1 
SMALL
USER_CHARGES
@<TRIPOS>ATOM
  1 H1     27.142000   25.215000   24.767000 H     1 ACE     0.1123 ****
  2 CH3    26.841000   26.255000   24.648000 C     1 ACE    -0.3662 ****
  3 H2     26.573000   26.672000   25.617000 H     1 ACE     0.1123 ****
  4 H3     25.992000   26.314000   23.969000 H     1 ACE     0.1123 ****
  5 C      27.998000   27.036000   24.069000 C     1 ACE     0.5972 ****
  6 O      29.055000   26.473000   23.817000 O     1 ACE    -0.5679 ****
  7 N      27.798000   28.336000   23.867000 N     2 ALA    -0.4157 ****
  8 H      26.913000   28.738000   24.136000 H     2 ALA     0.2719 ****
  9 CA     28.799000   29.255000   23.326000 C     2 ALA     0.0337 ****
 10 HA     29.791000   28.910000   23.624000 H     2 ALA     0.0823 ****
 11 CB     28.718000   29.231000   21.793000 C     2 ALA    -0.1825 ****
 12 HB1    27.734000   29.570000   21.466000 H     2 ALA     0.0603 ****
 13 HB2    29.480000   29.885000   21.367000 H     2 ALA     0.0603 ****
 14 HB3    28.886000   28.216000   21.430000 H     2 ALA     0.0603 ****
 15 C      28.606000   30.678000   23.883000 C     2 ALA     0.5973 ****
 16 O      27.525000   31.021000   24.358000 O     2 ALA    -0.5679 ****
 17 N      29.654000   31.505000   23.802000 N     3 ALA    -0.4157 ****
 18 H      30.485000   31.158000   23.349000 H     3 ALA     0.2719 ****
 19 CA     29.656000   32.900000   24.258000 C     3 ALA     0.0337 ****
 20 HA     28.763000   33.395000   23.872000 H     3 ALA     0.0823 ****
 21 CB     29.610000   32.956000   25.797000 C     3 ALA    -0.1825 ****
 22 HB1    30.426000   32.378000   26.232000 H     3 ALA     0.0603 ****
 23 HB2    29.678000   33.992000   26.131000 H     3 ALA     0.0603 ****
 24 HB3    28.664000   32.547000   26.155000 H     3 ALA     0.0603 ****
 25 C      30.875000   33.658000   23.699000 C     3 ALA     0.5973 ****
 26 O      30.740000   34.422000   22.752000 O     3 ALA    -0.5679 ****
 27 N      32.068000   33.435000   24.267000 N     4 SER    -0.4157 ****
 28 H      32.091000   32.795000   25.045000 H     4 SER     0.2719 ****
 29 CA     33.361000   34.012000   23.839000 C     4 SER    -0.0249 ****
 30 HA     34.100000   33.662000   24.560000 H     4 SER     0.0843 ****
 31 CB     33.781000   33.425000   22.483000 C     4 SER     0.2117 ****
 32 HB2    33.610000   32.348000   22.480000 H     4 SER     0.0352 ****
 33 HB3    33.191000   33.880000   21.685000 H     4 SER     0.0352 ****
 34 OG     35.153000   33.665000   22.257000 O     4 SER    -0.6546 ****
 35 HG     35.298000   34.621000   22.357000 H     4 SER     0.4275 ****
 36 C      33.490000   35.553000   23.852000 C     4 SER     0.5973 ****
 37 O      34.520000   36.073000   23.426000 O     4 SER    -0.5679 ****
 38 N      32.488000   36.290000   24.350000 N     5 NME    -0.4157 ****
 39 H      31.644000   35.810000   24.616000 H     5 NME     0.2719 ****
 40 CH3    32.498000   37.750000   24.419000 C     5 NME    -0.1490 ****
 41 HH31   31.588000   38.111000   24.900000 H     5 NME     0.0976 ****
 42 HH32   33.367000   38.088000   24.986000 H     5 NME     0.0976 ****
 43 HH33   32.558000   38.163000   23.410000 H     5 NME     0.0976 ****
@<TRIPOS>BOND
    1     5     6 1
    2     5     7 1
    3     2     3 1
    4     2     4 1
    5     2     5 1
    6     1     2 1
    7    15    16 1
    8    15    17 1
    9    11    12 1
   10    11    13 1
   11    11    14 1
   12     9    10 1
   13     9    11 1
   14     9    15 1
   15     7     8 1
   16     7     9 1
   17    25    26 1
   18    25    27 1
   19    21    22 1
   20    21    23 1
   21    21    24 1
   22    19    20 1
   23    19    21 1
   24    19    25 1
   25    17    18 1
   26    17    19 1
   27    36    37 1
   28    36    38 1
   29    34    35 1
   30    31    32 1
   31    31    33 1
   32    31    34 1
   33    29    30 1
   34    29    31 1
   35    29    36 1
   36    27    28 1
   37    27    29 1
   38    40    41 1
   39    40    42 1
   40    40    43 1
   41    38    39 1
   42    38    40 1
@<TRIPOS>SUBSTRUCTURE
      1  ACE              1 ****               0 ****  **** 
      2  ALA              7 ****               0 ****  **** 
      3  ALA             17 ****               0 ****  **** 
      4  SER             27 ****               0 ****  **** 
      5  NME             38 ****               0 ****  **** 
