@<TRIPOS>MOLECULE
default_name
   43    42     5     0     1 
SMALL
USER_CHARGES
@<TRIPOS>ATOM
  1 H1     26.040000   32.120000   22.930000 H     1 ACE     0.1123 ****
  2 CH3    27.071000   32.047000   22.588000 C     1 ACE    -0.3662 ****
  3 H2     27.652000   32.875000   22.989000 H     1 ACE     0.1123 ****
  4 H3     27.102000   32.069000   21.500000 H     1 ACE     0.1123 ****
  5 C      27.662000   30.746000   23.075000 C     1 ACE     0.5972 ****
  6 O      26.990000   29.974000   23.747000 O     1 ACE    -0.5679 ****
  7 N      28.935000   30.519000   22.765000 N     2 ALA    -0.4157 ****
  8 H      29.439000   31.269000   22.304000 H     2 ALA     0.2719 ****
  9 CA     29.727000   29.372000   23.223000 C     2 ALA     0.0337 ****
 10 HA     29.050000   28.553000   23.472000 H     2 ALA     0.0823 ****
 11 CB     30.614000   28.909000   22.057000 C     2 ALA    -0.1825 ****
 12 HB1    31.314000   29.700000   21.785000 H     2 ALA     0.0603 ****
 13 HB2    31.176000   28.022000   22.353000 H     2 ALA     0.0603 ****
 14 HB3    29.993000   28.661000   21.195000 H     2 ALA     0.0603 ****
 15 C      30.516000   29.714000   24.508000 C     2 ALA     0.5973 ****
 16 O      31.715000   29.455000   24.594000 O     2 ALA    -0.5679 ****
 17 N      29.846000   30.377000   25.461000 N     3 ALA    -0.4157 ****
 18 H      28.852000   30.462000   25.308000 H     3 ALA     0.2719 ****
 19 CA     30.388000   31.240000   26.521000 C     3 ALA     0.0337 ****
 20 HA     29.543000   31.461000   27.175000 H     3 ALA     0.0823 ****
 21 CB     31.411000   30.520000   27.415000 C     3 ALA    -0.1825 ****
 22 HB1    32.342000   30.347000   26.877000 H     3 ALA     0.0603 ****
 23 HB2    31.624000   31.137000   28.289000 H     3 ALA     0.0603 ****
 24 HB3    31.004000   29.564000   27.747000 H     3 ALA     0.0603 ****
 25 C      30.830000   32.614000   25.980000 C     3 ALA     0.5973 ****
 26 O      30.213000   33.625000   26.306000 O     3 ALA    -0.5679 ****
 27 N      31.838000   32.660000   25.103000 N     4 SER    -0.4157 ****
 28 H      32.323000   31.805000   24.893000 H     4 SER     0.2719 ****
 29 CA     32.096000   33.820000   24.240000 C     4 SER    -0.0249 ****
 30 HA     32.049000   34.722000   24.852000 H     4 SER     0.0843 ****
 31 CB     33.505000   33.727000   23.651000 C     4 SER     0.2117 ****
 32 HB2    34.225000   33.591000   24.460000 H     4 SER     0.0352 ****
 33 HB3    33.561000   32.873000   22.975000 H     4 SER     0.0352 ****
 34 OG     33.818000   34.913000   22.949000 O     4 SER    -0.6546 ****
 35 HG     34.700000   34.827000   22.572000 H     4 SER     0.4275 ****
 36 C      31.043000   33.943000   23.124000 C     4 SER     0.5973 ****
 37 O      30.493000   32.939000   22.663000 O     4 SER    -0.5679 ****
 38 N      30.772000   35.172000   22.673000 N     5 NME    -0.4157 ****
 39 H      31.312000   35.932000   23.059000 H     5 NME     0.2719 ****
 40 CH3    29.792000   35.475000   21.632000 C     5 NME    -0.1490 ****
 41 HH31   28.793000   35.204000   21.977000 H     5 NME     0.0976 ****
 42 HH32   29.814000   36.539000   21.395000 H     5 NME     0.0976 ****
 43 HH33   30.022000   34.901000   20.732000 H     5 NME     0.0976 ****
@<TRIPOS>BOND
    1     5     6 1
    2     5     7 1
    3     2     3 1
    4     2     4 1
    5     2     5 1
    6     1     2 1
    7    15    16 1
    8    15    17 1
    9    11    12 1
   10    11    13 1
   11    11    14 1
   12     9    10 1
   13     9    11 1
   14     9    15 1
   15     7     8 1
   16     7     9 1
   17    25    26 1
   18    25    27 1
   19    21    22 1
   20    21    23 1
   21    21    24 1
   22    19    20 1
   23    19    21 1
   24    19    25 1
   25    17    18 1
   26    17    19 1
   27    36    37 1
   28    36    38 1
   29    34    35 1
   30    31    32 1
   31    31    33 1
   32    31    34 1
   33    29    30 1
   34    29    31 1
   35    29    36 1
   36    27    28 1
   37    27    29 1
   38    40    41 1
   39    40    42 1
   40    40    43 1
   41    38    39 1
   42    38    40 1
@<TRIPOS>SUBSTRUCTURE
      1  ACE              1 ****               0 ****  **** 
      2  ALA              7 ****               0 ****  **** 
      3  ALA             17 ****               0 ****  **** 
      4  SER             27 ****               0 ****  **** 
      5  NME             38 ****               0 ****  **** 
