@<TRIPOS>MOLECULE
default_name
   43    42     5     0     1 
SMALL
USER_CHARGES
@<TRIPOS>ATOM
  1 H1     25.977000   25.722000   22.919000 H     1 ACE     0.1123 ****
  2 CH3    26.260000   26.737000   22.645000 C     1 ACE    -0.3662 ****
  3 H2     25.424000   27.411000   22.825000 H     1 ACE     0.1123 ****
  4 H3     26.541000   26.767000   21.594000 H     1 ACE     0.1123 ****
  5 C      27.437000   27.163000   23.490000 C     1 ACE     0.5972 ****
  6 O      27.911000   26.396000   24.317000 O     1 ACE    -0.5679 ****
  7 N      27.906000   28.391000   23.282000 N     2 ALA    -0.4157 ****
  8 H      27.441000   28.982000   22.609000 H     2 ALA     0.2719 ****
  9 CA     29.016000   28.993000   24.020000 C     2 ALA     0.0337 ****
 10 HA     29.002000   28.618000   25.044000 H     2 ALA     0.0823 ****
 11 CB     30.339000   28.571000   23.362000 C     2 ALA    -0.1825 ****
 12 HB1    30.374000   28.933000   22.333000 H     2 ALA     0.0603 ****
 13 HB2    31.181000   28.984000   23.916000 H     2 ALA     0.0603 ****
 14 HB3    30.419000   27.482000   23.362000 H     2 ALA     0.0603 ****
 15 C      28.879000   30.526000   24.071000 C     2 ALA     0.5973 ****
 16 O      28.177000   31.114000   23.253000 O     2 ALA    -0.5679 ****
 17 N      29.565000   31.162000   25.026000 N     3 ALA    -0.4157 ****
 18 H      30.097000   30.604000   25.673000 H     3 ALA     0.2719 ****
 19 CA     29.577000   32.615000   25.212000 C     3 ALA     0.0337 ****
 20 HA     28.565000   32.988000   25.042000 H     3 ALA     0.0823 ****
 21 CB     29.943000   32.936000   26.669000 C     3 ALA    -0.1825 ****
 22 HB1    30.926000   32.536000   26.919000 H     3 ALA     0.0603 ****
 23 HB2    29.954000   34.019000   26.809000 H     3 ALA     0.0603 ****
 24 HB3    29.198000   32.505000   27.339000 H     3 ALA     0.0603 ****
 25 C      30.474000   33.339000   24.186000 C     3 ALA     0.5973 ****
 26 O      29.974000   33.983000   23.269000 O     3 ALA    -0.5679 ****
 27 N      31.801000   33.251000   24.358000 N     4 SER    -0.4157 ****
 28 H      32.120000   32.724000   25.153000 H     4 SER     0.2719 ****
 29 CA     32.789000   34.129000   23.705000 C     4 SER    -0.0249 ****
 30 HA     33.776000   33.815000   24.044000 H     4 SER     0.0843 ****
 31 CB     32.770000   33.914000   22.179000 C     4 SER     0.2117 ****
 32 HB2    32.725000   32.845000   21.970000 H     4 SER     0.0352 ****
 33 HB3    31.891000   34.394000   21.747000 H     4 SER     0.0352 ****
 34 OG     33.935000   34.447000   21.574000 O     4 SER    -0.6546 ****
 35 HG     33.904000   34.243000   20.633000 H     4 SER     0.4275 ****
 36 C      32.641000   35.603000   24.140000 C     4 SER     0.5973 ****
 37 O      31.983000   35.894000   25.139000 O     4 SER    -0.5679 ****
 38 N      33.312000   36.530000   23.446000 N     5 NME    -0.4157 ****
 39 H      33.837000   36.200000   22.645000 H     5 NME     0.2719 ****
 40 CH3    33.297000   37.961000   23.740000 C     5 NME    -0.1490 ****
 41 HH31   32.273000   38.335000   23.685000 H     5 NME     0.0976 ****
 42 HH32   33.677000   38.133000   24.749000 H     5 NME     0.0976 ****
 43 HH33   33.918000   38.499000   23.023000 H     5 NME     0.0976 ****
@<TRIPOS>BOND
    1     5     6 1
    2     5     7 1
    3     2     3 1
    4     2     4 1
    5     2     5 1
    6     1     2 1
    7    15    16 1
    8    15    17 1
    9    11    12 1
   10    11    13 1
   11    11    14 1
   12     9    10 1
   13     9    11 1
   14     9    15 1
   15     7     8 1
   16     7     9 1
   17    25    26 1
   18    25    27 1
   19    21    22 1
   20    21    23 1
   21    21    24 1
   22    19    20 1
   23    19    21 1
   24    19    25 1
   25    17    18 1
   26    17    19 1
   27    36    37 1
   28    36    38 1
   29    34    35 1
   30    31    32 1
   31    31    33 1
   32    31    34 1
   33    29    30 1
   34    29    31 1
   35    29    36 1
   36    27    28 1
   37    27    29 1
   38    40    41 1
   39    40    42 1
   40    40    43 1
   41    38    39 1
   42    38    40 1
@<TRIPOS>SUBSTRUCTURE
      1  ACE              1 ****               0 ****  **** 
      2  ALA              7 ****               0 ****  **** 
      3  ALA             17 ****               0 ****  **** 
      4  SER             27 ****               0 ****  **** 
      5  NME             38 ****               0 ****  **** 
