@<TRIPOS>MOLECULE
default_name
   43    42     5     0     1 
SMALL
USER_CHARGES
@<TRIPOS>ATOM
  1 H1     25.748000   28.009000   25.115000 H     1 ACE     0.1123 ****
  2 CH3    25.863000   28.807000   24.381000 C     1 ACE    -0.3662 ****
  3 H2     25.525000   29.748000   24.811000 H     1 ACE     0.1123 ****
  4 H3     25.275000   28.570000   23.496000 H     1 ACE     0.1123 ****
  5 C      27.320000   28.916000   24.001000 C     1 ACE     0.5972 ****
  6 O      28.146000   28.171000   24.508000 O     1 ACE    -0.5679 ****
  7 N      27.640000   29.866000   23.125000 N     2 ALA    -0.4157 ****
  8 H      26.898000   30.440000   22.761000 H     2 ALA     0.2719 ****
  9 CA     28.986000   30.071000   22.571000 C     2 ALA     0.0337 ****
 10 HA     29.396000   29.091000   22.320000 H     2 ALA     0.0823 ****
 11 CB     28.834000   30.865000   21.265000 C     2 ALA    -0.1825 ****
 12 HB1    28.458000   31.867000   21.477000 H     2 ALA     0.0603 ****
 13 HB2    29.803000   30.949000   20.770000 H     2 ALA     0.0603 ****
 14 HB3    28.145000   30.351000   20.593000 H     2 ALA     0.0603 ****
 15 C      30.009000   30.732000   23.531000 C     2 ALA     0.5973 ****
 16 O      31.088000   31.124000   23.092000 O     2 ALA    -0.5679 ****
 17 N      29.686000   30.883000   24.821000 N     3 ALA    -0.4157 ****
 18 H      28.814000   30.482000   25.124000 H     3 ALA     0.2719 ****
 19 CA     30.447000   31.646000   25.816000 C     3 ALA     0.0337 ****
 20 HA     29.766000   31.867000   26.639000 H     3 ALA     0.0823 ****
 21 CB     31.558000   30.754000   26.397000 C     3 ALA    -0.1825 ****
 22 HB1    32.258000   30.458000   25.613000 H     3 ALA     0.0603 ****
 23 HB2    32.094000   31.290000   27.181000 H     3 ALA     0.0603 ****
 24 HB3    31.117000   29.854000   26.828000 H     3 ALA     0.0603 ****
 25 C      30.919000   33.027000   25.301000 C     3 ALA     0.5973 ****
 26 O      30.100000   33.932000   25.173000 O     3 ALA    -0.5679 ****
 27 N      32.215000   33.207000   25.018000 N     4 SER    -0.4157 ****
 28 H      32.810000   32.394000   25.061000 H     4 SER     0.2719 ****
 29 CA     32.827000   34.494000   24.633000 C     4 SER    -0.0249 ****
 30 HA     32.371000   35.270000   25.248000 H     4 SER     0.0843 ****
 31 CB     34.322000   34.461000   24.980000 C     4 SER     0.2117 ****
 32 HB2    34.450000   34.111000   26.005000 H     4 SER     0.0352 ****
 33 HB3    34.839000   33.777000   24.305000 H     4 SER     0.0352 ****
 34 OG     34.889000   35.748000   24.870000 O     4 SER    -0.6546 ****
 35 HG     34.654000   36.085000   23.989000 H     4 SER     0.4275 ****
 36 C      32.602000   34.921000   23.163000 C     4 SER     0.5973 ****
 37 O      33.306000   35.801000   22.665000 O     4 SER    -0.5679 ****
 38 N      31.662000   34.293000   22.446000 N     5 NME    -0.4157 ****
 39 H      31.111000   33.595000   22.921000 H     5 NME     0.2719 ****
 40 CH3    31.367000   34.564000   21.042000 C     5 NME    -0.1490 ****
 41 HH31   32.284000   34.499000   20.453000 H     5 NME     0.0976 ****
 42 HH32   30.646000   33.837000   20.665000 H     5 NME     0.0976 ****
 43 HH33   30.956000   35.570000   20.940000 H     5 NME     0.0976 ****
@<TRIPOS>BOND
    1     5     6 1
    2     5     7 1
    3     2     3 1
    4     2     4 1
    5     2     5 1
    6     1     2 1
    7    15    16 1
    8    15    17 1
    9    11    12 1
   10    11    13 1
   11    11    14 1
   12     9    10 1
   13     9    11 1
   14     9    15 1
   15     7     8 1
   16     7     9 1
   17    25    26 1
   18    25    27 1
   19    21    22 1
   20    21    23 1
   21    21    24 1
   22    19    20 1
   23    19    21 1
   24    19    25 1
   25    17    18 1
   26    17    19 1
   27    36    37 1
   28    36    38 1
   29    34    35 1
   30    31    32 1
   31    31    33 1
   32    31    34 1
   33    29    30 1
   34    29    31 1
   35    29    36 1
   36    27    28 1
   37    27    29 1
   38    40    41 1
   39    40    42 1
   40    40    43 1
   41    38    39 1
   42    38    40 1
@<TRIPOS>SUBSTRUCTURE
      1  ACE              1 ****               0 ****  **** 
      2  ALA              7 ****               0 ****  **** 
      3  ALA             17 ****               0 ****  **** 
      4  SER             27 ****               0 ****  **** 
      5  NME             38 ****               0 ****  **** 
