@<TRIPOS>MOLECULE
default_name
   43    42     5     0     1 
SMALL
USER_CHARGES
@<TRIPOS>ATOM
  1 H1     25.577000   27.406000   24.616000 H     1 ACE     0.1123 ****
  2 CH3    26.231000   27.480000   23.748000 C     1 ACE    -0.3662 ****
  3 H2     25.755000   28.093000   22.985000 H     1 ACE     0.1123 ****
  4 H3     26.430000   26.484000   23.356000 H     1 ACE     0.1123 ****
  5 C      27.530000   28.124000   24.169000 C     1 ACE     0.5972 ****
  6 O      27.702000   28.466000   25.331000 O     1 ACE    -0.5679 ****
  7 N      28.452000   28.289000   23.222000 N     2 ALA    -0.4157 ****
  8 H      28.233000   28.004000   22.282000 H     2 ALA     0.2719 ****
  9 CA     29.733000   28.955000   23.454000 C     2 ALA     0.0337 ****
 10 HA     30.148000   28.600000   24.399000 H     2 ALA     0.0823 ****
 11 CB     30.702000   28.545000   22.335000 C     2 ALA    -0.1825 ****
 12 HB1    30.314000   28.860000   21.365000 H     2 ALA     0.0603 ****
 13 HB2    31.670000   29.019000   22.500000 H     2 ALA     0.0603 ****
 14 HB3    30.834000   27.462000   22.337000 H     2 ALA     0.0603 ****
 15 C      29.557000   30.486000   23.556000 C     2 ALA     0.5973 ****
 16 O      29.495000   31.167000   22.537000 O     2 ALA    -0.5679 ****
 17 N      29.432000   30.989000   24.788000 N     3 ALA    -0.4157 ****
 18 H      29.367000   30.303000   25.526000 H     3 ALA     0.2719 ****
 19 CA     29.463000   32.383000   25.260000 C     3 ALA     0.0337 ****
 20 HA     28.688000   32.919000   24.710000 H     3 ALA     0.0823 ****
 21 CB     29.036000   32.376000   26.737000 C     3 ALA    -0.1825 ****
 22 HB1    29.777000   31.847000   27.338000 H     3 ALA     0.0603 ****
 23 HB2    28.955000   33.402000   27.099000 H     3 ALA     0.0603 ****
 24 HB3    28.067000   31.888000   26.844000 H     3 ALA     0.0603 ****
 25 C      30.777000   33.178000   25.009000 C     3 ALA     0.5973 ****
 26 O      31.474000   33.522000   25.963000 O     3 ALA    -0.5679 ****
 27 N      31.200000   33.391000   23.758000 N     4 SER    -0.4157 ****
 28 H      30.539000   33.286000   23.010000 H     4 SER     0.2719 ****
 29 CA     32.429000   34.130000   23.438000 C     4 SER    -0.0249 ****
 30 HA     33.207000   33.836000   24.143000 H     4 SER     0.0843 ****
 31 CB     32.907000   33.754000   22.034000 C     4 SER     0.2117 ****
 32 HB2    32.978000   32.668000   21.956000 H     4 SER     0.0352 ****
 33 HB3    32.190000   34.119000   21.297000 H     4 SER     0.0352 ****
 34 OG     34.178000   34.320000   21.784000 O     4 SER    -0.6546 ****
 35 HG     34.419000   34.145000   20.869000 H     4 SER     0.4275 ****
 36 C      32.224000   35.647000   23.554000 C     4 SER     0.5973 ****
 37 O      31.134000   36.150000   23.283000 O     4 SER    -0.5679 ****
 38 N      33.279000   36.381000   23.929000 N     5 NME    -0.4157 ****
 39 H      34.149000   35.894000   24.077000 H     5 NME     0.2719 ****
 40 CH3    33.253000   37.832000   24.098000 C     5 NME    -0.1490 ****
 41 HH31   32.517000   38.099000   24.859000 H     5 NME     0.0976 ****
 42 HH32   34.236000   38.194000   24.403000 H     5 NME     0.0976 ****
 43 HH33   32.968000   38.306000   23.157000 H     5 NME     0.0976 ****
@<TRIPOS>BOND
    1     5     6 1
    2     5     7 1
    3     2     3 1
    4     2     4 1
    5     2     5 1
    6     1     2 1
    7    15    16 1
    8    15    17 1
    9    11    12 1
   10    11    13 1
   11    11    14 1
   12     9    10 1
   13     9    11 1
   14     9    15 1
   15     7     8 1
   16     7     9 1
   17    25    26 1
   18    25    27 1
   19    21    22 1
   20    21    23 1
   21    21    24 1
   22    19    20 1
   23    19    21 1
   24    19    25 1
   25    17    18 1
   26    17    19 1
   27    36    37 1
   28    36    38 1
   29    34    35 1
   30    31    32 1
   31    31    33 1
   32    31    34 1
   33    29    30 1
   34    29    31 1
   35    29    36 1
   36    27    28 1
   37    27    29 1
   38    40    41 1
   39    40    42 1
   40    40    43 1
   41    38    39 1
   42    38    40 1
@<TRIPOS>SUBSTRUCTURE
      1  ACE              1 ****               0 ****  **** 
      2  ALA              7 ****               0 ****  **** 
      3  ALA             17 ****               0 ****  **** 
      4  SER             27 ****               0 ****  **** 
      5  NME             38 ****               0 ****  **** 
