@<TRIPOS>MOLECULE
default_name
   43    42     5     0     1 
SMALL
USER_CHARGES
@<TRIPOS>ATOM
  1 H1     26.514000   25.949000   22.168000 H     1 ACE     0.1123 ****
  2 CH3    26.382000   26.843000   22.776000 C     1 ACE    -0.3662 ****
  3 H2     26.299000   26.564000   23.824000 H     1 ACE     0.1123 ****
  4 H3     25.484000   27.370000   22.459000 H     1 ACE     0.1123 ****
  5 C      27.581000   27.743000   22.590000 C     1 ACE     0.5972 ****
  6 O      28.492000   27.407000   21.845000 O     1 ACE    -0.5679 ****
  7 N      27.580000   28.884000   23.275000 N     2 ALA    -0.4157 ****
  8 H      26.812000   29.073000   23.901000 H     2 ALA     0.2719 ****
  9 CA     28.658000   29.873000   23.245000 C     2 ALA     0.0337 ****
 10 HA     29.607000   29.355000   23.096000 H     2 ALA     0.0823 ****
 11 CB     28.431000   30.821000   22.057000 C     2 ALA    -0.1825 ****
 12 HB1    27.487000   31.354000   22.180000 H     2 ALA     0.0603 ****
 13 HB2    29.245000   31.544000   21.993000 H     2 ALA     0.0603 ****
 14 HB3    28.401000   30.248000   21.129000 H     2 ALA     0.0603 ****
 15 C      28.741000   30.643000   24.576000 C     2 ALA     0.5973 ****
 16 O      27.788000   30.653000   25.353000 O     2 ALA    -0.5679 ****
 17 N      29.877000   31.303000   24.821000 N     3 ALA    -0.4157 ****
 18 H      30.618000   31.211000   24.147000 H     3 ALA     0.2719 ****
 19 CA     30.165000   32.018000   26.075000 C     3 ALA     0.0337 ****
 20 HA     29.230000   32.417000   26.474000 H     3 ALA     0.0823 ****
 21 CB     30.720000   31.002000   27.086000 C     3 ALA    -0.1825 ****
 22 HB1    31.662000   30.588000   26.725000 H     3 ALA     0.0603 ****
 23 HB2    30.892000   31.496000   28.044000 H     3 ALA     0.0603 ****
 24 HB3    30.002000   30.195000   27.236000 H     3 ALA     0.0603 ****
 25 C      31.121000   33.222000   25.911000 C     3 ALA     0.5973 ****
 26 O      31.424000   33.911000   26.882000 O     3 ALA    -0.5679 ****
 27 N      31.616000   33.477000   24.696000 N     4 SER    -0.4157 ****
 28 H      31.292000   32.926000   23.916000 H     4 SER     0.2719 ****
 29 CA     32.455000   34.626000   24.334000 C     4 SER    -0.0249 ****
 30 HA     32.060000   35.522000   24.816000 H     4 SER     0.0843 ****
 31 CB     33.891000   34.409000   24.831000 C     4 SER     0.2117 ****
 32 HB2    33.873000   34.203000   25.902000 H     4 SER     0.0352 ****
 33 HB3    34.332000   33.555000   24.315000 H     4 SER     0.0352 ****
 34 OG     34.680000   35.562000   24.603000 O     4 SER    -0.6546 ****
 35 HG     35.506000   35.465000   25.087000 H     4 SER     0.4275 ****
 36 C      32.408000   34.836000   22.812000 C     4 SER     0.5973 ****
 37 O      31.903000   33.972000   22.092000 O     4 SER    -0.5679 ****
 38 N      32.913000   35.973000   22.322000 N     5 NME    -0.4157 ****
 39 H      33.386000   36.579000   22.979000 H     5 NME     0.2719 ****
 40 CH3    32.920000   36.335000   20.906000 C     5 NME    -0.1490 ****
 41 HH31   31.896000   36.364000   20.528000 H     5 NME     0.0976 ****
 42 HH32   33.382000   37.314000   20.770000 H     5 NME     0.0976 ****
 43 HH33   33.480000   35.590000   20.338000 H     5 NME     0.0976 ****
@<TRIPOS>BOND
    1     5     6 1
    2     5     7 1
    3     2     3 1
    4     2     4 1
    5     2     5 1
    6     1     2 1
    7    15    16 1
    8    15    17 1
    9    11    12 1
   10    11    13 1
   11    11    14 1
   12     9    10 1
   13     9    11 1
   14     9    15 1
   15     7     8 1
   16     7     9 1
   17    25    26 1
   18    25    27 1
   19    21    22 1
   20    21    23 1
   21    21    24 1
   22    19    20 1
   23    19    21 1
   24    19    25 1
   25    17    18 1
   26    17    19 1
   27    36    37 1
   28    36    38 1
   29    34    35 1
   30    31    32 1
   31    31    33 1
   32    31    34 1
   33    29    30 1
   34    29    31 1
   35    29    36 1
   36    27    28 1
   37    27    29 1
   38    40    41 1
   39    40    42 1
   40    40    43 1
   41    38    39 1
   42    38    40 1
@<TRIPOS>SUBSTRUCTURE
      1  ACE              1 ****               0 ****  **** 
      2  ALA              7 ****               0 ****  **** 
      3  ALA             17 ****               0 ****  **** 
      4  SER             27 ****               0 ****  **** 
      5  NME             38 ****               0 ****  **** 
