@<TRIPOS>MOLECULE
default_name
   43    42     5     0     1 
SMALL
USER_CHARGES
@<TRIPOS>ATOM
  1 H1     25.835000   27.903000   25.006000 H     1 ACE     0.1123 ****
  2 CH3    26.138000   28.270000   24.026000 C     1 ACE    -0.3662 ****
  3 H2     25.522000   29.124000   23.751000 H     1 ACE     0.1123 ****
  4 H3     26.023000   27.476000   23.290000 H     1 ACE     0.1123 ****
  5 C      27.586000   28.693000   24.087000 C     1 ACE     0.5972 ****
  6 O      28.216000   28.594000   25.132000 O     1 ACE    -0.5679 ****
  7 N      28.121000   29.169000   22.965000 N     2 ALA    -0.4157 ****
  8 H      27.539000   29.239000   22.147000 H     2 ALA     0.2719 ****
  9 CA     29.494000   29.666000   22.874000 C     2 ALA     0.0337 ****
 10 HA     30.154000   28.960000   23.380000 H     2 ALA     0.0823 ****
 11 CB     29.897000   29.704000   21.392000 C     2 ALA    -0.1825 ****
 12 HB1    29.244000   30.384000   20.841000 H     2 ALA     0.0603 ****
 13 HB2    30.926000   30.053000   21.301000 H     2 ALA     0.0603 ****
 14 HB3    29.824000   28.705000   20.961000 H     2 ALA     0.0603 ****
 15 C      29.641000   31.037000   23.568000 C     2 ALA     0.5973 ****
 16 O      29.431000   32.083000   22.959000 O     2 ALA    -0.5679 ****
 17 N      30.037000   31.043000   24.843000 N     3 ALA    -0.4157 ****
 18 H      30.144000   30.151000   25.305000 H     3 ALA     0.2719 ****
 19 CA     30.033000   32.237000   25.698000 C     3 ALA     0.0337 ****
 20 HA     29.102000   32.777000   25.519000 H     3 ALA     0.0823 ****
 21 CB     30.024000   31.760000   27.157000 C     3 ALA    -0.1825 ****
 22 HB1    30.953000   31.236000   27.387000 H     3 ALA     0.0603 ****
 23 HB2    29.928000   32.618000   27.824000 H     3 ALA     0.0603 ****
 24 HB3    29.179000   31.091000   27.326000 H     3 ALA     0.0603 ****
 25 C      31.181000   33.241000   25.428000 C     3 ALA     0.5973 ****
 26 O      31.319000   34.225000   26.148000 O     3 ALA    -0.5679 ****
 27 N      31.996000   33.022000   24.390000 N     4 SER    -0.4157 ****
 28 H      31.778000   32.238000   23.797000 H     4 SER     0.2719 ****
 29 CA     33.142000   33.871000   24.015000 C     4 SER    -0.0249 ****
 30 HA     33.624000   34.202000   24.936000 H     4 SER     0.0843 ****
 31 CB     34.165000   33.022000   23.246000 C     4 SER     0.2117 ****
 32 HB2    34.372000   32.109000   23.806000 H     4 SER     0.0352 ****
 33 HB3    33.756000   32.754000   22.271000 H     4 SER     0.0352 ****
 34 OG     35.373000   33.726000   23.071000 O     4 SER    -0.6546 ****
 35 HG     35.143000   34.586000   22.678000 H     4 SER     0.4275 ****
 36 C      32.767000   35.152000   23.234000 C     4 SER     0.5973 ****
 37 O      33.622000   35.738000   22.568000 O     4 SER    -0.5679 ****
 38 N      31.497000   35.574000   23.265000 N     5 NME    -0.4157 ****
 39 H      30.852000   35.064000   23.848000 H     5 NME     0.2719 ****
 40 CH3    30.999000   36.750000   22.554000 C     5 NME    -0.1490 ****
 41 HH31   31.180000   36.638000   21.483000 H     5 NME     0.0976 ****
 42 HH32   29.928000   36.868000   22.728000 H     5 NME     0.0976 ****
 43 HH33   31.522000   37.641000   22.906000 H     5 NME     0.0976 ****
@<TRIPOS>BOND
    1     5     6 1
    2     5     7 1
    3     2     3 1
    4     2     4 1
    5     2     5 1
    6     1     2 1
    7    15    16 1
    8    15    17 1
    9    11    12 1
   10    11    13 1
   11    11    14 1
   12     9    10 1
   13     9    11 1
   14     9    15 1
   15     7     8 1
   16     7     9 1
   17    25    26 1
   18    25    27 1
   19    21    22 1
   20    21    23 1
   21    21    24 1
   22    19    20 1
   23    19    21 1
   24    19    25 1
   25    17    18 1
   26    17    19 1
   27    36    37 1
   28    36    38 1
   29    34    35 1
   30    31    32 1
   31    31    33 1
   32    31    34 1
   33    29    30 1
   34    29    31 1
   35    29    36 1
   36    27    28 1
   37    27    29 1
   38    40    41 1
   39    40    42 1
   40    40    43 1
   41    38    39 1
   42    38    40 1
@<TRIPOS>SUBSTRUCTURE
      1  ACE              1 ****               0 ****  **** 
      2  ALA              7 ****               0 ****  **** 
      3  ALA             17 ****               0 ****  **** 
      4  SER             27 ****               0 ****  **** 
      5  NME             38 ****               0 ****  **** 
