@<TRIPOS>MOLECULE
default_name
   43    42     5     0     1 
SMALL
USER_CHARGES
@<TRIPOS>ATOM
  1 H1     25.816000   28.191000   25.298000 H     1 ACE     0.1123 ****
  2 CH3    25.953000   28.870000   24.456000 C     1 ACE    -0.3662 ****
  3 H2     25.529000   29.842000   24.700000 H     1 ACE     0.1123 ****
  4 H3     25.460000   28.458000   23.577000 H     1 ACE     0.1123 ****
  5 C      27.431000   29.014000   24.179000 C     1 ACE     0.5972 ****
  6 O      28.247000   28.416000   24.863000 O     1 ACE    -0.5679 ****
  7 N      27.778000   29.834000   23.189000 N     2 ALA    -0.4157 ****
  8 H      27.041000   30.289000   22.675000 H     2 ALA     0.2719 ****
  9 CA     29.154000   30.021000   22.706000 C     2 ALA     0.0337 ****
 10 HA     29.604000   29.032000   22.595000 H     2 ALA     0.0823 ****
 11 CB     29.071000   30.660000   21.312000 C     2 ALA    -0.1825 ****
 12 HB1    28.649000   31.663000   21.383000 H     2 ALA     0.0603 ****
 13 HB2    30.070000   30.726000   20.877000 H     2 ALA     0.0603 ****
 14 HB3    28.449000   30.048000   20.656000 H     2 ALA     0.0603 ****
 15 C      30.097000   30.819000   23.644000 C     2 ALA     0.5973 ****
 16 O      31.222000   31.106000   23.251000 O     2 ALA    -0.5679 ****
 17 N      29.635000   31.194000   24.845000 N     3 ALA    -0.4157 ****
 18 H      28.717000   30.848000   25.069000 H     3 ALA     0.2719 ****
 19 CA     30.265000   32.003000   25.904000 C     3 ALA     0.0337 ****
 20 HA     29.456000   32.359000   26.544000 H     3 ALA     0.0823 ****
 21 CB     31.128000   31.077000   26.774000 C     3 ALA    -0.1825 ****
 22 HB1    31.937000   30.646000   26.182000 H     3 ALA     0.0603 ****
 23 HB2    31.550000   31.640000   27.607000 H     3 ALA     0.0603 ****
 24 HB3    30.514000   30.267000   27.172000 H     3 ALA     0.0603 ****
 25 C      31.022000   33.280000   25.467000 C     3 ALA     0.5973 ****
 26 O      30.463000   34.366000   25.583000 O     3 ALA    -0.5679 ****
 27 N      32.237000   33.182000   24.914000 N     4 SER    -0.4157 ****
 28 H      32.660000   32.269000   24.864000 H     4 SER     0.2719 ****
 29 CA     33.020000   34.326000   24.410000 C     4 SER    -0.0249 ****
 30 HA     32.899000   35.152000   25.113000 H     4 SER     0.0843 ****
 31 CB     34.508000   33.952000   24.390000 C     4 SER     0.2117 ****
 32 HB2    34.792000   33.531000   25.355000 H     4 SER     0.0352 ****
 33 HB3    34.686000   33.208000   23.612000 H     4 SER     0.0352 ****
 34 OG     35.302000   35.092000   24.144000 O     4 SER    -0.6546 ****
 35 HG     34.915000   35.555000   23.381000 H     4 SER     0.4275 ****
 36 C      32.577000   34.852000   23.028000 C     4 SER     0.5973 ****
 37 O      33.231000   35.736000   22.473000 O     4 SER    -0.5679 ****
 38 N      31.508000   34.298000   22.443000 N     5 NME    -0.4157 ****
 39 H      31.037000   33.567000   22.953000 H     5 NME     0.2719 ****
 40 CH3    30.989000   34.676000   21.131000 C     5 NME    -0.1490 ****
 41 HH31   31.783000   34.598000   20.386000 H     5 NME     0.0976 ****
 42 HH32   30.164000   34.021000   20.850000 H     5 NME     0.0976 ****
 43 HH33   30.638000   35.710000   21.161000 H     5 NME     0.0976 ****
@<TRIPOS>BOND
    1     5     6 1
    2     5     7 1
    3     2     3 1
    4     2     4 1
    5     2     5 1
    6     1     2 1
    7    15    16 1
    8    15    17 1
    9    11    12 1
   10    11    13 1
   11    11    14 1
   12     9    10 1
   13     9    11 1
   14     9    15 1
   15     7     8 1
   16     7     9 1
   17    25    26 1
   18    25    27 1
   19    21    22 1
   20    21    23 1
   21    21    24 1
   22    19    20 1
   23    19    21 1
   24    19    25 1
   25    17    18 1
   26    17    19 1
   27    36    37 1
   28    36    38 1
   29    34    35 1
   30    31    32 1
   31    31    33 1
   32    31    34 1
   33    29    30 1
   34    29    31 1
   35    29    36 1
   36    27    28 1
   37    27    29 1
   38    40    41 1
   39    40    42 1
   40    40    43 1
   41    38    39 1
   42    38    40 1
@<TRIPOS>SUBSTRUCTURE
      1  ACE              1 ****               0 ****  **** 
      2  ALA              7 ****               0 ****  **** 
      3  ALA             17 ****               0 ****  **** 
      4  SER             27 ****               0 ****  **** 
      5  NME             38 ****               0 ****  **** 
