@<TRIPOS>MOLECULE
default_name
   43    42     5     0     1 
SMALL
USER_CHARGES
@<TRIPOS>ATOM
  1 H1     31.157000   27.751000   23.446000 H     1 ACE     0.1123 ****
  2 CH3    30.175000   27.938000   23.013000 C     1 ACE    -0.3662 ****
  3 H2     29.411000   27.460000   23.624000 H     1 ACE     0.1123 ****
  4 H3     30.145000   27.540000   22.000000 H     1 ACE     0.1123 ****
  5 C      29.933000   29.428000   22.972000 C     1 ACE     0.5972 ****
  6 O      30.782000   30.198000   23.397000 O     1 ACE    -0.5679 ****
  7 N      28.756000   29.827000   22.490000 N     2 ALA    -0.4157 ****
  8 H      28.117000   29.118000   22.172000 H     2 ALA     0.2719 ****
  9 CA     28.381000   31.226000   22.234000 C     2 ALA     0.0337 ****
 10 HA     29.149000   31.663000   21.591000 H     2 ALA     0.0823 ****
 11 CB     27.060000   31.219000   21.453000 C     2 ALA    -0.1825 ****
 12 HB1    26.261000   30.805000   22.070000 H     2 ALA     0.0603 ****
 13 HB2    26.797000   32.241000   21.175000 H     2 ALA     0.0603 ****
 14 HB3    27.165000   30.628000   20.543000 H     2 ALA     0.0603 ****
 15 C      28.297000   32.144000   23.478000 C     2 ALA     0.5973 ****
 16 O      28.064000   33.340000   23.339000 O     2 ALA    -0.5679 ****
 17 N      28.512000   31.621000   24.690000 N     3 ALA    -0.4157 ****
 18 H      28.726000   30.639000   24.737000 H     3 ALA     0.2719 ****
 19 CA     28.766000   32.415000   25.898000 C     3 ALA     0.0337 ****
 20 HA     28.053000   33.241000   25.919000 H     3 ALA     0.0823 ****
 21 CB     28.491000   31.520000   27.115000 C     3 ALA    -0.1825 ****
 22 HB1    29.210000   30.700000   27.146000 H     3 ALA     0.0603 ****
 23 HB2    28.585000   32.107000   28.030000 H     3 ALA     0.0603 ****
 24 HB3    27.479000   31.118000   27.061000 H     3 ALA     0.0603 ****
 25 C      30.181000   33.054000   25.939000 C     3 ALA     0.5973 ****
 26 O      30.654000   33.448000   27.003000 O     3 ALA    -0.5679 ****
 27 N      30.879000   33.127000   24.801000 N     4 SER    -0.4157 ****
 28 H      30.437000   32.811000   23.949000 H     4 SER     0.2719 ****
 29 CA     32.232000   33.669000   24.646000 C     4 SER    -0.0249 ****
 30 HA     32.332000   34.557000   25.270000 H     4 SER     0.0843 ****
 31 CB     33.253000   32.628000   25.116000 C     4 SER     0.2117 ****
 32 HB2    33.002000   32.313000   26.130000 H     4 SER     0.0352 ****
 33 HB3    33.214000   31.758000   24.457000 H     4 SER     0.0352 ****
 34 OG     34.563000   33.169000   25.118000 O     4 SER    -0.6546 ****
 35 HG     35.155000   32.517000   25.505000 H     4 SER     0.4275 ****
 36 C      32.486000   34.072000   23.184000 C     4 SER     0.5973 ****
 37 O      31.738000   33.680000   22.287000 O     4 SER    -0.5679 ****
 38 N      33.539000   34.859000   22.939000 N     5 NME    -0.4157 ****
 39 H      34.149000   35.054000   23.721000 H     5 NME     0.2719 ****
 40 CH3    33.912000   35.357000   21.617000 C     5 NME    -0.1490 ****
 41 HH31   33.085000   35.931000   21.195000 H     5 NME     0.0976 ****
 42 HH32   34.795000   35.992000   21.689000 H     5 NME     0.0976 ****
 43 HH33   34.124000   34.515000   20.956000 H     5 NME     0.0976 ****
@<TRIPOS>BOND
    1     5     6 1
    2     5     7 1
    3     2     3 1
    4     2     4 1
    5     2     5 1
    6     1     2 1
    7    15    16 1
    8    15    17 1
    9    11    12 1
   10    11    13 1
   11    11    14 1
   12     9    10 1
   13     9    11 1
   14     9    15 1
   15     7     8 1
   16     7     9 1
   17    25    26 1
   18    25    27 1
   19    21    22 1
   20    21    23 1
   21    21    24 1
   22    19    20 1
   23    19    21 1
   24    19    25 1
   25    17    18 1
   26    17    19 1
   27    36    37 1
   28    36    38 1
   29    34    35 1
   30    31    32 1
   31    31    33 1
   32    31    34 1
   33    29    30 1
   34    29    31 1
   35    29    36 1
   36    27    28 1
   37    27    29 1
   38    40    41 1
   39    40    42 1
   40    40    43 1
   41    38    39 1
   42    38    40 1
@<TRIPOS>SUBSTRUCTURE
      1  ACE              1 ****               0 ****  **** 
      2  ALA              7 ****               0 ****  **** 
      3  ALA             17 ****               0 ****  **** 
      4  SER             27 ****               0 ****  **** 
      5  NME             38 ****               0 ****  **** 
