@<TRIPOS>MOLECULE
default_name
   43    42     5     0     1 
SMALL
USER_CHARGES
@<TRIPOS>ATOM
  1 H1     26.043000   32.352000   23.597000 H     1 ACE     0.1123 ****
  2 CH3    26.992000   32.229000   23.077000 C     1 ACE    -0.3662 ****
  3 H2     27.665000   33.042000   23.343000 H     1 ACE     0.1123 ****
  4 H3     26.824000   32.229000   22.002000 H     1 ACE     0.1123 ****
  5 C      27.612000   30.914000   23.485000 C     1 ACE     0.5972 ****
  6 O      27.069000   30.214000   24.329000 O     1 ACE    -0.5679 ****
  7 N      28.762000   30.587000   22.901000 N     2 ALA    -0.4157 ****
  8 H      29.177000   31.270000   22.278000 H     2 ALA     0.2719 ****
  9 CA     29.535000   29.373000   23.187000 C     2 ALA     0.0337 ****
 10 HA     28.867000   28.613000   23.595000 H     2 ALA     0.0823 ****
 11 CB     30.093000   28.837000   21.860000 C     2 ALA    -0.1825 ****
 12 HB1    30.765000   29.572000   21.412000 H     2 ALA     0.0603 ****
 13 HB2    30.647000   27.915000   22.041000 H     2 ALA     0.0603 ****
 14 HB3    29.274000   28.628000   21.170000 H     2 ALA     0.0603 ****
 15 C      30.620000   29.647000   24.253000 C     2 ALA     0.5973 ****
 16 O      31.812000   29.549000   23.973000 O     2 ALA    -0.5679 ****
 17 N      30.196000   30.135000   25.428000 N     3 ALA    -0.4157 ****
 18 H      29.199000   30.148000   25.577000 H     3 ALA     0.2719 ****
 19 CA     31.017000   30.791000   26.463000 C     3 ALA     0.0337 ****
 20 HA     30.351000   30.926000   27.316000 H     3 ALA     0.0823 ****
 21 CB     32.147000   29.881000   26.973000 C     3 ALA    -0.1825 ****
 22 HB1    32.932000   29.788000   26.222000 H     3 ALA     0.0603 ****
 23 HB2    32.581000   30.317000   27.873000 H     3 ALA     0.0603 ****
 24 HB3    31.753000   28.893000   27.211000 H     3 ALA     0.0603 ****
 25 C      31.458000   32.228000   26.097000 C     3 ALA     0.5973 ****
 26 O      31.839000   33.003000   26.969000 O     3 ALA    -0.5679 ****
 27 N      31.369000   32.598000   24.817000 N     4 SER    -0.4157 ****
 28 H      31.056000   31.906000   24.153000 H     4 SER     0.2719 ****
 29 CA     31.591000   33.938000   24.269000 C     4 SER    -0.0249 ****
 30 HA     31.212000   34.678000   24.975000 H     4 SER     0.0843 ****
 31 CB     33.096000   34.174000   24.094000 C     4 SER     0.2117 ****
 32 HB2    33.598000   33.987000   25.045000 H     4 SER     0.0352 ****
 33 HB3    33.490000   33.483000   23.346000 H     4 SER     0.0352 ****
 34 OG     33.356000   35.507000   23.695000 O     4 SER    -0.6546 ****
 35 HG     34.302000   35.665000   23.772000 H     4 SER     0.4275 ****
 36 C      30.818000   34.095000   22.946000 C     4 SER     0.5973 ****
 37 O      30.241000   33.127000   22.440000 O     4 SER    -0.5679 ****
 38 N      30.777000   35.312000   22.394000 N     5 NME    -0.4157 ****
 39 H      31.349000   36.023000   22.832000 H     5 NME     0.2719 ****
 40 CH3    30.066000   35.645000   21.162000 C     5 NME    -0.1490 ****
 41 HH31   28.999000   35.450000   21.285000 H     5 NME     0.0976 ****
 42 HH32   30.213000   36.698000   20.917000 H     5 NME     0.0976 ****
 43 HH33   30.443000   35.030000   20.342000 H     5 NME     0.0976 ****
@<TRIPOS>BOND
    1     5     6 1
    2     5     7 1
    3     2     3 1
    4     2     4 1
    5     2     5 1
    6     1     2 1
    7    15    16 1
    8    15    17 1
    9    11    12 1
   10    11    13 1
   11    11    14 1
   12     9    10 1
   13     9    11 1
   14     9    15 1
   15     7     8 1
   16     7     9 1
   17    25    26 1
   18    25    27 1
   19    21    22 1
   20    21    23 1
   21    21    24 1
   22    19    20 1
   23    19    21 1
   24    19    25 1
   25    17    18 1
   26    17    19 1
   27    36    37 1
   28    36    38 1
   29    34    35 1
   30    31    32 1
   31    31    33 1
   32    31    34 1
   33    29    30 1
   34    29    31 1
   35    29    36 1
   36    27    28 1
   37    27    29 1
   38    40    41 1
   39    40    42 1
   40    40    43 1
   41    38    39 1
   42    38    40 1
@<TRIPOS>SUBSTRUCTURE
      1  ACE              1 ****               0 ****  **** 
      2  ALA              7 ****               0 ****  **** 
      3  ALA             17 ****               0 ****  **** 
      4  SER             27 ****               0 ****  **** 
      5  NME             38 ****               0 ****  **** 
