@<TRIPOS>MOLECULE
default_name
   43    42     5     0     1 
SMALL
USER_CHARGES
@<TRIPOS>ATOM
  1 H1     26.828000   32.799000   22.926000 H     1 ACE     0.1123 ****
  2 CH3    27.411000   32.146000   22.277000 C     1 ACE    -0.3662 ****
  3 H2     28.250000   32.702000   21.865000 H     1 ACE     0.1123 ****
  4 H3     26.781000   31.776000   21.471000 H     1 ACE     0.1123 ****
  5 C      27.920000   30.979000   23.088000 C     1 ACE     0.5972 ****
  6 O      27.583000   30.849000   24.255000 O     1 ACE    -0.5679 ****
  7 N      28.748000   30.134000   22.474000 N     2 ALA    -0.4157 ****
  8 H      28.993000   30.334000   21.518000 H     2 ALA     0.2719 ****
  9 CA     29.192000   28.845000   23.032000 C     2 ALA     0.0337 ****
 10 HA     28.305000   28.277000   23.316000 H     2 ALA     0.0823 ****
 11 CB     29.905000   28.083000   21.905000 C     2 ALA    -0.1825 ****
 12 HB1    30.810000   28.615000   21.609000 H     2 ALA     0.0603 ****
 13 HB2    30.179000   27.086000   22.254000 H     2 ALA     0.0603 ****
 14 HB3    29.243000   27.983000   21.044000 H     2 ALA     0.0603 ****
 15 C      30.082000   28.921000   24.299000 C     2 ALA     0.5973 ****
 16 O      30.378000   27.887000   24.890000 O     2 ALA    -0.5679 ****
 17 N      30.501000   30.128000   24.694000 N     3 ALA    -0.4157 ****
 18 H      30.079000   30.893000   24.195000 H     3 ALA     0.2719 ****
 19 CA     31.250000   30.472000   25.917000 C     3 ALA     0.0337 ****
 20 HA     30.675000   30.179000   26.797000 H     3 ALA     0.0823 ****
 21 CB     32.607000   29.745000   25.917000 C     3 ALA    -0.1825 ****
 22 HB1    33.153000   29.963000   24.998000 H     3 ALA     0.0603 ****
 23 HB2    33.200000   30.076000   26.771000 H     3 ALA     0.0603 ****
 24 HB3    32.466000   28.669000   26.008000 H     3 ALA     0.0603 ****
 25 C      31.542000   31.989000   26.002000 C     3 ALA     0.5973 ****
 26 O      31.871000   32.507000   27.065000 O     3 ALA    -0.5679 ****
 27 N      31.383000   32.714000   24.889000 N     4 SER    -0.4157 ****
 28 H      31.158000   32.229000   24.034000 H     4 SER     0.2719 ****
 29 CA     31.430000   34.174000   24.775000 C     4 SER    -0.0249 ****
 30 HA     30.856000   34.616000   25.590000 H     4 SER     0.0843 ****
 31 CB     32.881000   34.665000   24.883000 C     4 SER     0.2117 ****
 32 HB2    33.316000   34.299000   25.814000 H     4 SER     0.0352 ****
 33 HB3    33.463000   34.275000   24.046000 H     4 SER     0.0352 ****
 34 OG     32.935000   36.080000   24.882000 O     4 SER    -0.6546 ****
 35 HG     33.815000   36.348000   25.167000 H     4 SER     0.4275 ****
 36 C      30.788000   34.593000   23.440000 C     4 SER     0.5973 ****
 37 O      30.500000   33.734000   22.602000 O     4 SER    -0.5679 ****
 38 N      30.551000   35.893000   23.239000 N     5 NME    -0.4157 ****
 39 H      30.904000   36.530000   23.942000 H     5 NME     0.2719 ****
 40 CH3    29.936000   36.449000   22.037000 C     5 NME    -0.1490 ****
 41 HH31   29.986000   37.539000   22.059000 H     5 NME     0.0976 ****
 42 HH32   30.462000   36.085000   21.152000 H     5 NME     0.0976 ****
 43 HH33   28.892000   36.137000   21.978000 H     5 NME     0.0976 ****
@<TRIPOS>BOND
    1     5     6 1
    2     5     7 1
    3     2     3 1
    4     2     4 1
    5     2     5 1
    6     1     2 1
    7    15    16 1
    8    15    17 1
    9    11    12 1
   10    11    13 1
   11    11    14 1
   12     9    10 1
   13     9    11 1
   14     9    15 1
   15     7     8 1
   16     7     9 1
   17    25    26 1
   18    25    27 1
   19    21    22 1
   20    21    23 1
   21    21    24 1
   22    19    20 1
   23    19    21 1
   24    19    25 1
   25    17    18 1
   26    17    19 1
   27    36    37 1
   28    36    38 1
   29    34    35 1
   30    31    32 1
   31    31    33 1
   32    31    34 1
   33    29    30 1
   34    29    31 1
   35    29    36 1
   36    27    28 1
   37    27    29 1
   38    40    41 1
   39    40    42 1
   40    40    43 1
   41    38    39 1
   42    38    40 1
@<TRIPOS>SUBSTRUCTURE
      1  ACE              1 ****               0 ****  **** 
      2  ALA              7 ****               0 ****  **** 
      3  ALA             17 ****               0 ****  **** 
      4  SER             27 ****               0 ****  **** 
      5  NME             38 ****               0 ****  **** 
