@<TRIPOS>MOLECULE
default_name
   43    42     5     0     1 
SMALL
USER_CHARGES
@<TRIPOS>ATOM
  1 H1     26.082000   25.320000   23.791000 H     1 ACE     0.1123 ****
  2 CH3    26.077000   26.381000   23.543000 C     1 ACE    -0.3662 ****
  3 H2     25.387000   26.906000   24.200000 H     1 ACE     0.1123 ****
  4 H3     25.776000   26.513000   22.506000 H     1 ACE     0.1123 ****
  5 C      27.469000   26.935000   23.734000 C     1 ACE     0.5972 ****
  6 O      28.376000   26.204000   24.110000 O     1 ACE    -0.5679 ****
  7 N      27.634000   28.231000   23.479000 N     2 ALA    -0.4157 ****
  8 H      26.831000   28.779000   23.208000 H     2 ALA     0.2719 ****
  9 CA     28.897000   28.953000   23.624000 C     2 ALA     0.0337 ****
 10 HA     29.462000   28.512000   24.448000 H     2 ALA     0.0823 ****
 11 CB     29.714000   28.793000   22.333000 C     2 ALA    -0.1825 ****
 12 HB1    29.168000   29.225000   21.493000 H     2 ALA     0.0603 ****
 13 HB2    30.674000   29.299000   22.433000 H     2 ALA     0.0603 ****
 14 HB3    29.894000   27.735000   22.138000 H     2 ALA     0.0603 ****
 15 C      28.654000   30.437000   23.957000 C     2 ALA     0.5973 ****
 16 O      27.566000   30.956000   23.715000 O     2 ALA    -0.5679 ****
 17 N      29.674000   31.104000   24.505000 N     3 ALA    -0.4157 ****
 18 H      30.528000   30.597000   24.667000 H     3 ALA     0.2719 ****
 19 CA     29.675000   32.543000   24.787000 C     3 ALA     0.0337 ****
 20 HA     28.737000   32.972000   24.428000 H     3 ALA     0.0823 ****
 21 CB     29.704000   32.768000   26.308000 C     3 ALA    -0.1825 ****
 22 HB1    30.587000   32.306000   26.750000 H     3 ALA     0.0603 ****
 23 HB2    29.709000   33.839000   26.518000 H     3 ALA     0.0603 ****
 24 HB3    28.812000   32.329000   26.756000 H     3 ALA     0.0603 ****
 25 C      30.779000   33.277000   24.000000 C     3 ALA     0.5973 ****
 26 O      30.568000   33.648000   22.850000 O     3 ALA    -0.5679 ****
 27 N      31.969000   33.436000   24.597000 N     4 SER    -0.4157 ****
 28 H      32.043000   33.110000   25.546000 H     4 SER     0.2719 ****
 29 CA     33.022000   34.359000   24.132000 C     4 SER    -0.0249 ****
 30 HA     33.858000   34.271000   24.826000 H     4 SER     0.0843 ****
 31 CB     33.557000   33.920000   22.756000 C     4 SER     0.2117 ****
 32 HB2    33.700000   32.838000   22.757000 H     4 SER     0.0352 ****
 33 HB3    32.837000   34.179000   21.978000 H     4 SER     0.0352 ****
 34 OG     34.797000   34.542000   22.470000 O     4 SER    -0.6546 ****
 35 HG     35.116000   34.203000   21.626000 H     4 SER     0.4275 ****
 36 C      32.578000   35.837000   24.194000 C     4 SER     0.5973 ****
 37 O      31.569000   36.158000   24.821000 O     4 SER    -0.5679 ****
 38 N      33.363000   36.749000   23.611000 N     5 NME    -0.4157 ****
 39 H      34.177000   36.397000   23.121000 H     5 NME     0.2719 ****
 40 CH3    33.101000   38.187000   23.599000 C     5 NME    -0.1490 ****
 41 HH31   33.063000   38.562000   24.624000 H     5 NME     0.0976 ****
 42 HH32   33.885000   38.709000   23.051000 H     5 NME     0.0976 ****
 43 HH33   32.137000   38.379000   23.123000 H     5 NME     0.0976 ****
@<TRIPOS>BOND
    1     5     6 1
    2     5     7 1
    3     2     3 1
    4     2     4 1
    5     2     5 1
    6     1     2 1
    7    15    16 1
    8    15    17 1
    9    11    12 1
   10    11    13 1
   11    11    14 1
   12     9    10 1
   13     9    11 1
   14     9    15 1
   15     7     8 1
   16     7     9 1
   17    25    26 1
   18    25    27 1
   19    21    22 1
   20    21    23 1
   21    21    24 1
   22    19    20 1
   23    19    21 1
   24    19    25 1
   25    17    18 1
   26    17    19 1
   27    36    37 1
   28    36    38 1
   29    34    35 1
   30    31    32 1
   31    31    33 1
   32    31    34 1
   33    29    30 1
   34    29    31 1
   35    29    36 1
   36    27    28 1
   37    27    29 1
   38    40    41 1
   39    40    42 1
   40    40    43 1
   41    38    39 1
   42    38    40 1
@<TRIPOS>SUBSTRUCTURE
      1  ACE              1 ****               0 ****  **** 
      2  ALA              7 ****               0 ****  **** 
      3  ALA             17 ****               0 ****  **** 
      4  SER             27 ****               0 ****  **** 
      5  NME             38 ****               0 ****  **** 
