@<TRIPOS>MOLECULE
default_name
   43    42     5     0     1 
SMALL
USER_CHARGES
@<TRIPOS>ATOM
  1 H1     26.138000   32.604000   23.487000 H     1 ACE     0.1123 ****
  2 CH3    27.086000   32.351000   23.015000 C     1 ACE    -0.3662 ****
  3 H2     27.814000   33.135000   23.211000 H     1 ACE     0.1123 ****
  4 H3     26.942000   32.243000   21.942000 H     1 ACE     0.1123 ****
  5 C      27.588000   31.046000   23.587000 C     1 ACE     0.5972 ****
  6 O      27.009000   30.527000   24.530000 O     1 ACE    -0.5679 ****
  7 N      28.683000   30.526000   23.037000 N     2 ALA    -0.4157 ****
  8 H      29.137000   31.059000   22.306000 H     2 ALA     0.2719 ****
  9 CA     29.276000   29.232000   23.416000 C     2 ALA     0.0337 ****
 10 HA     28.466000   28.559000   23.705000 H     2 ALA     0.0823 ****
 11 CB     29.946000   28.645000   22.165000 C     2 ALA    -0.1825 ****
 12 HB1    30.786000   29.271000   21.862000 H     2 ALA     0.0603 ****
 13 HB2    30.312000   27.640000   22.380000 H     2 ALA     0.0603 ****
 14 HB3    29.224000   28.584000   21.349000 H     2 ALA     0.0603 ****
 15 C      30.240000   29.298000   24.631000 C     2 ALA     0.5973 ****
 16 O      31.073000   28.414000   24.797000 O     2 ALA    -0.5679 ****
 17 N      30.162000   30.400000   25.392000 N     3 ALA    -0.4157 ****
 18 H      29.361000   30.975000   25.181000 H     3 ALA     0.2719 ****
 19 CA     31.027000   30.946000   26.462000 C     3 ALA     0.0337 ****
 20 HA     30.387000   31.119000   27.328000 H     3 ALA     0.0823 ****
 21 CB     32.141000   29.993000   26.925000 C     3 ALA    -0.1825 ****
 22 HB1    32.842000   29.807000   26.111000 H     3 ALA     0.0603 ****
 23 HB2    32.683000   30.445000   27.757000 H     3 ALA     0.0603 ****
 24 HB3    31.710000   29.050000   27.262000 H     3 ALA     0.0603 ****
 25 C      31.577000   32.334000   26.062000 C     3 ALA     0.5973 ****
 26 O      32.059000   33.095000   26.895000 O     3 ALA    -0.5679 ****
 27 N      31.447000   32.679000   24.777000 N     4 SER    -0.4157 ****
 28 H      31.061000   31.983000   24.155000 H     4 SER     0.2719 ****
 29 CA     31.690000   33.990000   24.173000 C     4 SER    -0.0249 ****
 30 HA     31.316000   34.766000   24.841000 H     4 SER     0.0843 ****
 31 CB     33.197000   34.204000   23.985000 C     4 SER     0.2117 ****
 32 HB2    33.699000   34.070000   24.945000 H     4 SER     0.0352 ****
 33 HB3    33.587000   33.471000   23.277000 H     4 SER     0.0352 ****
 34 OG     33.462000   35.512000   23.511000 O     4 SER    -0.6546 ****
 35 HG     34.406000   35.679000   23.598000 H     4 SER     0.4275 ****
 36 C      30.919000   34.079000   22.842000 C     4 SER     0.5973 ****
 37 O      30.348000   33.080000   22.389000 O     4 SER    -0.5679 ****
 38 N      30.872000   35.266000   22.229000 N     5 NME    -0.4157 ****
 39 H      31.441000   36.002000   22.628000 H     5 NME     0.2719 ****
 40 CH3    30.159000   35.531000   20.981000 C     5 NME    -0.1490 ****
 41 HH31   29.093000   35.339000   21.116000 H     5 NME     0.0976 ****
 42 HH32   30.302000   36.570000   20.682000 H     5 NME     0.0976 ****
 43 HH33   30.538000   34.876000   20.194000 H     5 NME     0.0976 ****
@<TRIPOS>BOND
    1     5     6 1
    2     5     7 1
    3     2     3 1
    4     2     4 1
    5     2     5 1
    6     1     2 1
    7    15    16 1
    8    15    17 1
    9    11    12 1
   10    11    13 1
   11    11    14 1
   12     9    10 1
   13     9    11 1
   14     9    15 1
   15     7     8 1
   16     7     9 1
   17    25    26 1
   18    25    27 1
   19    21    22 1
   20    21    23 1
   21    21    24 1
   22    19    20 1
   23    19    21 1
   24    19    25 1
   25    17    18 1
   26    17    19 1
   27    36    37 1
   28    36    38 1
   29    34    35 1
   30    31    32 1
   31    31    33 1
   32    31    34 1
   33    29    30 1
   34    29    31 1
   35    29    36 1
   36    27    28 1
   37    27    29 1
   38    40    41 1
   39    40    42 1
   40    40    43 1
   41    38    39 1
   42    38    40 1
@<TRIPOS>SUBSTRUCTURE
      1  ACE              1 ****               0 ****  **** 
      2  ALA              7 ****               0 ****  **** 
      3  ALA             17 ****               0 ****  **** 
      4  SER             27 ****               0 ****  **** 
      5  NME             38 ****               0 ****  **** 
