@<TRIPOS>MOLECULE
default_name
   43    42     5     0     1 
SMALL
USER_CHARGES
@<TRIPOS>ATOM
  1 H1     26.813000   27.392000   26.192000 H     1 ACE     0.1123 ****
  2 CH3    26.871000   27.487000   25.108000 C     1 ACE    -0.3662 ****
  3 H2     26.057000   28.117000   24.754000 H     1 ACE     0.1123 ****
  4 H3     26.803000   26.500000   24.655000 H     1 ACE     0.1123 ****
  5 C      28.195000   28.116000   24.743000 C     1 ACE     0.5972 ****
  6 O      28.990000   28.428000   25.616000 O     1 ACE    -0.5679 ****
  7 N      28.419000   28.328000   23.447000 N     2 ALA    -0.4157 ****
  8 H      27.709000   28.044000   22.793000 H     2 ALA     0.2719 ****
  9 CA     29.682000   28.839000   22.893000 C     2 ALA     0.0337 ****
 10 HA     30.498000   28.286000   23.362000 H     2 ALA     0.0823 ****
 11 CB     29.694000   28.509000   21.392000 C     2 ALA    -0.1825 ****
 12 HB1    28.909000   29.067000   20.880000 H     2 ALA     0.0603 ****
 13 HB2    30.659000   28.786000   20.964000 H     2 ALA     0.0603 ****
 14 HB3    29.541000   27.440000   21.242000 H     2 ALA     0.0603 ****
 15 C      29.975000   30.340000   23.153000 C     2 ALA     0.5973 ****
 16 O      30.969000   30.845000   22.639000 O     2 ALA    -0.5679 ****
 17 N      29.121000   31.025000   23.928000 N     3 ALA    -0.4157 ****
 18 H      28.385000   30.477000   24.338000 H     3 ALA     0.2719 ****
 19 CA     29.115000   32.450000   24.299000 C     3 ALA     0.0337 ****
 20 HA     28.215000   32.886000   23.863000 H     3 ALA     0.0823 ****
 21 CB     28.957000   32.548000   25.824000 C     3 ALA    -0.1825 ****
 22 HB1    29.795000   32.062000   26.326000 H     3 ALA     0.0603 ****
 23 HB2    28.922000   33.598000   26.122000 H     3 ALA     0.0603 ****
 24 HB3    28.030000   32.064000   26.134000 H     3 ALA     0.0603 ****
 25 C      30.274000   33.323000   23.772000 C     3 ALA     0.5973 ****
 26 O      30.070000   34.103000   22.843000 O     3 ALA    -0.5679 ****
 27 N      31.468000   33.202000   24.370000 N     4 SER    -0.4157 ****
 28 H      31.546000   32.516000   25.101000 H     4 SER     0.2719 ****
 29 CA     32.634000   34.059000   24.106000 C     4 SER    -0.0249 ****
 30 HA     33.438000   33.726000   24.760000 H     4 SER     0.0843 ****
 31 CB     33.120000   33.822000   22.665000 C     4 SER     0.2117 ****
 32 HB2    33.147000   32.748000   22.474000 H     4 SER     0.0352 ****
 33 HB3    32.426000   34.282000   21.959000 H     4 SER     0.0352 ****
 34 OG     34.418000   34.352000   22.458000 O     4 SER    -0.6546 ****
 35 HG     34.722000   34.054000   21.594000 H     4 SER     0.4275 ****
 36 C      32.378000   35.540000   24.465000 C     4 SER     0.5973 ****
 37 O      31.453000   35.854000   25.214000 O     4 SER    -0.5679 ****
 38 N      33.242000   36.451000   24.001000 N     5 NME    -0.4157 ****
 39 H      33.981000   36.102000   23.402000 H     5 NME     0.2719 ****
 40 CH3    33.162000   37.885000   24.265000 C     5 NME    -0.1490 ****
 41 HH31   32.208000   38.271000   23.899000 H     5 NME     0.0976 ****
 42 HH32   33.221000   38.065000   25.340000 H     5 NME     0.0976 ****
 43 HH33   33.978000   38.407000   23.764000 H     5 NME     0.0976 ****
@<TRIPOS>BOND
    1     5     6 1
    2     5     7 1
    3     2     3 1
    4     2     4 1
    5     2     5 1
    6     1     2 1
    7    15    16 1
    8    15    17 1
    9    11    12 1
   10    11    13 1
   11    11    14 1
   12     9    10 1
   13     9    11 1
   14     9    15 1
   15     7     8 1
   16     7     9 1
   17    25    26 1
   18    25    27 1
   19    21    22 1
   20    21    23 1
   21    21    24 1
   22    19    20 1
   23    19    21 1
   24    19    25 1
   25    17    18 1
   26    17    19 1
   27    36    37 1
   28    36    38 1
   29    34    35 1
   30    31    32 1
   31    31    33 1
   32    31    34 1
   33    29    30 1
   34    29    31 1
   35    29    36 1
   36    27    28 1
   37    27    29 1
   38    40    41 1
   39    40    42 1
   40    40    43 1
   41    38    39 1
   42    38    40 1
@<TRIPOS>SUBSTRUCTURE
      1  ACE              1 ****               0 ****  **** 
      2  ALA              7 ****               0 ****  **** 
      3  ALA             17 ****               0 ****  **** 
      4  SER             27 ****               0 ****  **** 
      5  NME             38 ****               0 ****  **** 
