@<TRIPOS>MOLECULE
default_name
   43    42     5     0     1 
SMALL
USER_CHARGES
@<TRIPOS>ATOM
  1 H1     26.018000   32.322000   23.444000 H     1 ACE     0.1123 ****
  2 CH3    26.984000   32.209000   22.954000 C     1 ACE    -0.3662 ****
  3 H2     27.639000   33.031000   23.236000 H     1 ACE     0.1123 ****
  4 H3     26.850000   32.202000   21.875000 H     1 ACE     0.1123 ****
  5 C      27.607000   30.903000   23.388000 C     1 ACE     0.5972 ****
  6 O      27.045000   30.198000   24.216000 O     1 ACE    -0.5679 ****
  7 N      28.780000   30.589000   22.843000 N     2 ALA    -0.4157 ****
  8 H      29.206000   31.275000   22.232000 H     2 ALA     0.2719 ****
  9 CA     29.557000   29.383000   23.157000 C     2 ALA     0.0337 ****
 10 HA     28.884000   28.617000   23.545000 H     2 ALA     0.0823 ****
 11 CB     30.164000   28.851000   21.850000 C     2 ALA    -0.1825 ****
 12 HB1    30.842000   29.592000   21.423000 H     2 ALA     0.0603 ****
 13 HB2    30.721000   27.935000   22.051000 H     2 ALA     0.0603 ****
 14 HB3    29.370000   28.632000   21.134000 H     2 ALA     0.0603 ****
 15 C      30.603000   29.670000   24.257000 C     2 ALA     0.5973 ****
 16 O      31.804000   29.586000   24.017000 O     2 ALA    -0.5679 ****
 17 N      30.138000   30.167000   25.412000 N     3 ALA    -0.4157 ****
 18 H      29.137000   30.181000   25.529000 H     3 ALA     0.2719 ****
 19 CA     30.929000   30.804000   26.482000 C     3 ALA     0.0337 ****
 20 HA     30.229000   30.966000   27.303000 H     3 ALA     0.0823 ****
 21 CB     32.005000   29.861000   27.047000 C     3 ALA    -0.1825 ****
 22 HB1    32.816000   29.734000   26.331000 H     3 ALA     0.0603 ****
 23 HB2    32.416000   30.291000   27.961000 H     3 ALA     0.0603 ****
 24 HB3    31.567000   28.890000   27.277000 H     3 ALA     0.0603 ****
 25 C      31.431000   32.224000   26.126000 C     3 ALA     0.5973 ****
 26 O      31.863000   32.971000   26.999000 O     3 ALA    -0.5679 ****
 27 N      31.331000   32.611000   24.852000 N     4 SER    -0.4157 ****
 28 H      30.986000   31.932000   24.190000 H     4 SER     0.2719 ****
 29 CA     31.605000   33.940000   24.303000 C     4 SER    -0.0249 ****
 30 HA     31.254000   34.695000   25.007000 H     4 SER     0.0843 ****
 31 CB     33.119000   34.117000   24.128000 C     4 SER     0.2117 ****
 32 HB2    33.613000   33.915000   25.080000 H     4 SER     0.0352 ****
 33 HB3    33.486000   33.408000   23.383000 H     4 SER     0.0352 ****
 34 OG     33.429000   35.438000   23.724000 O     4 SER    -0.6546 ****
 35 HG     34.381000   35.558000   23.797000 H     4 SER     0.4275 ****
 36 C      30.843000   34.121000   22.977000 C     4 SER     0.5973 ****
 37 O      30.245000   33.168000   22.465000 O     4 SER    -0.5679 ****
 38 N      30.838000   35.340000   22.428000 N     5 NME    -0.4157 ****
 39 H      31.427000   36.034000   22.870000 H     5 NME     0.2719 ****
 40 CH3    30.144000   35.694000   21.192000 C     5 NME    -0.1490 ****
 41 HH31   29.072000   35.522000   21.308000 H     5 NME     0.0976 ****
 42 HH32   30.316000   36.744000   20.953000 H     5 NME     0.0976 ****
 43 HH33   30.512000   35.074000   20.372000 H     5 NME     0.0976 ****
@<TRIPOS>BOND
    1     5     6 1
    2     5     7 1
    3     2     3 1
    4     2     4 1
    5     2     5 1
    6     1     2 1
    7    15    16 1
    8    15    17 1
    9    11    12 1
   10    11    13 1
   11    11    14 1
   12     9    10 1
   13     9    11 1
   14     9    15 1
   15     7     8 1
   16     7     9 1
   17    25    26 1
   18    25    27 1
   19    21    22 1
   20    21    23 1
   21    21    24 1
   22    19    20 1
   23    19    21 1
   24    19    25 1
   25    17    18 1
   26    17    19 1
   27    36    37 1
   28    36    38 1
   29    34    35 1
   30    31    32 1
   31    31    33 1
   32    31    34 1
   33    29    30 1
   34    29    31 1
   35    29    36 1
   36    27    28 1
   37    27    29 1
   38    40    41 1
   39    40    42 1
   40    40    43 1
   41    38    39 1
   42    38    40 1
@<TRIPOS>SUBSTRUCTURE
      1  ACE              1 ****               0 ****  **** 
      2  ALA              7 ****               0 ****  **** 
      3  ALA             17 ****               0 ****  **** 
      4  SER             27 ****               0 ****  **** 
      5  NME             38 ****               0 ****  **** 
