@<TRIPOS>MOLECULE
default_name
   43    42     5     0     1 
SMALL
USER_CHARGES
@<TRIPOS>ATOM
  1 H1     28.190000   29.483000   20.524000 H     1 ACE     0.1123 ****
  2 CH3    28.483000   30.300000   21.180000 C     1 ACE    -0.3662 ****
  3 H2     27.881000   31.181000   20.964000 H     1 ACE     0.1123 ****
  4 H3     29.538000   30.534000   21.038000 H     1 ACE     0.1123 ****
  5 C      28.266000   29.897000   22.619000 C     1 ACE     0.5972 ****
  6 O      27.565000   30.587000   23.351000 O     1 ACE    -0.5679 ****
  7 N      28.869000   28.779000   23.022000 N     2 ALA    -0.4157 ****
  8 H      29.460000   28.300000   22.364000 H     2 ALA     0.2719 ****
  9 CA     28.949000   28.359000   24.420000 C     2 ALA     0.0337 ****
 10 HA     27.983000   28.524000   24.900000 H     2 ALA     0.0823 ****
 11 CB     29.251000   26.854000   24.461000 C     2 ALA    -0.1825 ****
 12 HB1    30.201000   26.647000   23.966000 H     2 ALA     0.0603 ****
 13 HB2    29.316000   26.523000   25.498000 H     2 ALA     0.0603 ****
 14 HB3    28.455000   26.301000   23.961000 H     2 ALA     0.0603 ****
 15 C      30.006000   29.213000   25.150000 C     2 ALA     0.5973 ****
 16 O      31.180000   28.852000   25.188000 O     2 ALA    -0.5679 ****
 17 N      29.569000   30.362000   25.681000 N     3 ALA    -0.4157 ****
 18 H      28.576000   30.522000   25.613000 H     3 ALA     0.2719 ****
 19 CA     30.386000   31.566000   25.875000 C     3 ALA     0.0337 ****
 20 HA     29.709000   32.307000   26.299000 H     3 ALA     0.0823 ****
 21 CB     31.481000   31.355000   26.932000 C     3 ALA    -0.1825 ****
 22 HB1    32.264000   30.703000   26.542000 H     3 ALA     0.0603 ****
 23 HB2    31.928000   32.314000   27.195000 H     3 ALA     0.0603 ****
 24 HB3    31.052000   30.905000   27.828000 H     3 ALA     0.0603 ****
 25 C      30.893000   32.183000   24.549000 C     3 ALA     0.5973 ****
 26 O      31.071000   31.510000   23.535000 O     3 ALA    -0.5679 ****
 27 N      31.059000   33.508000   24.539000 N     4 SER    -0.4157 ****
 28 H      30.928000   34.024000   25.398000 H     4 SER     0.2719 ****
 29 CA     31.536000   34.289000   23.389000 C     4 SER    -0.0249 ****
 30 HA     32.344000   33.743000   22.903000 H     4 SER     0.0843 ****
 31 CB     30.398000   34.463000   22.374000 C     4 SER     0.2117 ****
 32 HB2    29.994000   33.483000   22.114000 H     4 SER     0.0352 ****
 33 HB3    29.603000   35.064000   22.818000 H     4 SER     0.0352 ****
 34 OG     30.866000   35.090000   21.194000 O     4 SER    -0.6546 ****
 35 HG     30.159000   35.073000   20.542000 H     4 SER     0.4275 ****
 36 C      32.086000   35.646000   23.854000 C     4 SER     0.5973 ****
 37 O      31.860000   36.042000   24.998000 O     4 SER    -0.5679 ****
 38 N      32.811000   36.353000   22.981000 N     5 NME    -0.4157 ****
 39 H      32.866000   35.990000   22.039000 H     5 NME     0.2719 ****
 40 CH3    33.427000   37.646000   23.270000 C     5 NME    -0.1490 ****
 41 HH31   34.119000   37.545000   24.109000 H     5 NME     0.0976 ****
 42 HH32   33.970000   38.009000   22.397000 H     5 NME     0.0976 ****
 43 HH33   32.655000   38.369000   23.541000 H     5 NME     0.0976 ****
@<TRIPOS>BOND
    1     5     6 1
    2     5     7 1
    3     2     3 1
    4     2     4 1
    5     2     5 1
    6     1     2 1
    7    15    16 1
    8    15    17 1
    9    11    12 1
   10    11    13 1
   11    11    14 1
   12     9    10 1
   13     9    11 1
   14     9    15 1
   15     7     8 1
   16     7     9 1
   17    25    26 1
   18    25    27 1
   19    21    22 1
   20    21    23 1
   21    21    24 1
   22    19    20 1
   23    19    21 1
   24    19    25 1
   25    17    18 1
   26    17    19 1
   27    36    37 1
   28    36    38 1
   29    34    35 1
   30    31    32 1
   31    31    33 1
   32    31    34 1
   33    29    30 1
   34    29    31 1
   35    29    36 1
   36    27    28 1
   37    27    29 1
   38    40    41 1
   39    40    42 1
   40    40    43 1
   41    38    39 1
   42    38    40 1
@<TRIPOS>SUBSTRUCTURE
      1  ACE              1 ****               0 ****  **** 
      2  ALA              7 ****               0 ****  **** 
      3  ALA             17 ****               0 ****  **** 
      4  SER             27 ****               0 ****  **** 
      5  NME             38 ****               0 ****  **** 
