@<TRIPOS>MOLECULE
default_name
   43    42     5     0     1 
SMALL
USER_CHARGES
@<TRIPOS>ATOM
  1 H1     28.008000   32.902000   21.248000 H     1 ACE     0.1123 ****
  2 CH3    28.197000   31.833000   21.169000 C     1 ACE    -0.3662 ****
  3 H2     29.145000   31.671000   20.657000 H     1 ACE     0.1123 ****
  4 H3     27.389000   31.359000   20.616000 H     1 ACE     0.1123 ****
  5 C      28.277000   31.241000   22.556000 C     1 ACE     0.5972 ****
  6 O      28.191000   31.968000   23.539000 O     1 ACE    -0.5679 ****
  7 N      28.443000   29.921000   22.631000 N     2 ALA    -0.4157 ****
  8 H      28.513000   29.408000   21.768000 H     2 ALA     0.2719 ****
  9 CA     28.656000   29.167000   23.871000 C     2 ALA     0.0337 ****
 10 HA     28.108000   29.654000   24.680000 H     2 ALA     0.0823 ****
 11 CB     28.062000   27.763000   23.686000 C     2 ALA    -0.1825 ****
 12 HB1    28.570000   27.243000   22.872000 H     2 ALA     0.0603 ****
 13 HB2    28.191000   27.188000   24.604000 H     2 ALA     0.0603 ****
 14 HB3    26.997000   27.835000   23.460000 H     2 ALA     0.0603 ****
 15 C      30.153000   29.157000   24.258000 C     2 ALA     0.5973 ****
 16 O      30.839000   28.159000   24.060000 O     2 ALA    -0.5679 ****
 17 N      30.623000   30.302000   24.774000 N     3 ALA    -0.4157 ****
 18 H      29.916000   30.990000   24.964000 H     3 ALA     0.2719 ****
 19 CA     32.000000   30.796000   24.943000 C     3 ALA     0.0337 ****
 20 HA     32.260000   30.756000   26.001000 H     3 ALA     0.0823 ****
 21 CB     33.053000   29.985000   24.164000 C     3 ALA    -0.1825 ****
 22 HB1    32.771000   29.907000   23.112000 H     3 ALA     0.0603 ****
 23 HB2    34.022000   30.482000   24.230000 H     3 ALA     0.0603 ****
 24 HB3    33.153000   28.987000   24.590000 H     3 ALA     0.0603 ****
 25 C      32.035000   32.266000   24.474000 C     3 ALA     0.5973 ****
 26 O      32.007000   32.550000   23.281000 O     3 ALA    -0.5679 ****
 27 N      32.060000   33.206000   25.425000 N     4 SER    -0.4157 ****
 28 H      32.069000   32.896000   26.384000 H     4 SER     0.2719 ****
 29 CA     32.170000   34.663000   25.200000 C     4 SER    -0.0249 ****
 30 HA     32.105000   35.122000   26.186000 H     4 SER     0.0843 ****
 31 CB     33.569000   35.007000   24.666000 C     4 SER     0.2117 ****
 32 HB2    34.323000   34.454000   25.227000 H     4 SER     0.0352 ****
 33 HB3    33.639000   34.732000   23.612000 H     4 SER     0.0352 ****
 34 OG     33.819000   36.388000   24.815000 O     4 SER    -0.6546 ****
 35 HG     33.079000   36.857000   24.394000 H     4 SER     0.4275 ****
 36 C      31.062000   35.353000   24.369000 C     4 SER     0.5973 ****
 37 O      31.182000   36.547000   24.095000 O     4 SER    -0.5679 ****
 38 N      29.980000   34.659000   23.990000 N     5 NME    -0.4157 ****
 39 H      29.957000   33.666000   24.169000 H     5 NME     0.2719 ****
 40 CH3    28.865000   35.229000   23.237000 C     5 NME    -0.1490 ****
 41 HH31   28.000000   34.567000   23.292000 H     5 NME     0.0976 ****
 42 HH32   28.594000   36.203000   23.650000 H     5 NME     0.0976 ****
 43 HH33   29.155000   35.358000   22.193000 H     5 NME     0.0976 ****
@<TRIPOS>BOND
    1     5     6 1
    2     5     7 1
    3     2     3 1
    4     2     4 1
    5     2     5 1
    6     1     2 1
    7    15    16 1
    8    15    17 1
    9    11    12 1
   10    11    13 1
   11    11    14 1
   12     9    10 1
   13     9    11 1
   14     9    15 1
   15     7     8 1
   16     7     9 1
   17    25    26 1
   18    25    27 1
   19    21    22 1
   20    21    23 1
   21    21    24 1
   22    19    20 1
   23    19    21 1
   24    19    25 1
   25    17    18 1
   26    17    19 1
   27    36    37 1
   28    36    38 1
   29    34    35 1
   30    31    32 1
   31    31    33 1
   32    31    34 1
   33    29    30 1
   34    29    31 1
   35    29    36 1
   36    27    28 1
   37    27    29 1
   38    40    41 1
   39    40    42 1
   40    40    43 1
   41    38    39 1
   42    38    40 1
@<TRIPOS>SUBSTRUCTURE
      1  ACE              1 ****               0 ****  **** 
      2  ALA              7 ****               0 ****  **** 
      3  ALA             17 ****               0 ****  **** 
      4  SER             27 ****               0 ****  **** 
      5  NME             38 ****               0 ****  **** 
