@<TRIPOS>MOLECULE
default_name
   43    42     5     0     1 
SMALL
USER_CHARGES
@<TRIPOS>ATOM
  1 H1     29.064000   26.473000   27.388000 H     1 ACE     0.1123 ****
  2 CH3    29.211000   27.514000   27.100000 C     1 ACE    -0.3662 ****
  3 H2     30.237000   27.809000   27.310000 H     1 ACE     0.1123 ****
  4 H3     28.520000   28.147000   27.652000 H     1 ACE     0.1123 ****
  5 C      28.944000   27.654000   25.620000 C     1 ACE     0.5972 ****
  6 O      28.619000   26.678000   24.957000 O     1 ACE    -0.5679 ****
  7 N      29.086000   28.872000   25.103000 N     2 ALA    -0.4157 ****
  8 H      29.391000   29.623000   25.705000 H     2 ALA     0.2719 ****
  9 CA     28.898000   29.204000   23.691000 C     2 ALA     0.0337 ****
 10 HA     29.206000   28.350000   23.086000 H     2 ALA     0.0823 ****
 11 CB     27.407000   29.470000   23.436000 C     2 ALA    -0.1825 ****
 12 HB1    27.073000   30.320000   24.034000 H     2 ALA     0.0603 ****
 13 HB2    27.240000   29.689000   22.381000 H     2 ALA     0.0603 ****
 14 HB3    26.823000   28.589000   23.707000 H     2 ALA     0.0603 ****
 15 C      29.763000   30.412000   23.286000 C     2 ALA     0.5973 ****
 16 O      30.161000   31.195000   24.146000 O     2 ALA    -0.5679 ****
 17 N      30.002000   30.557000   21.974000 N     3 ALA    -0.4157 ****
 18 H      29.593000   29.859000   21.376000 H     3 ALA     0.2719 ****
 19 CA     30.850000   31.553000   21.298000 C     3 ALA     0.0337 ****
 20 HA     31.481000   31.006000   20.596000 H     3 ALA     0.0823 ****
 21 CB     29.944000   32.468000   20.457000 C     3 ALA    -0.1825 ****
 22 HB1    29.240000   32.999000   21.100000 H     3 ALA     0.0603 ****
 23 HB2    30.553000   33.192000   19.913000 H     3 ALA     0.0603 ****
 24 HB3    29.383000   31.872000   19.737000 H     3 ALA     0.0603 ****
 25 C      31.840000   32.334000   22.197000 C     3 ALA     0.5973 ****
 26 O      32.973000   31.892000   22.377000 O     3 ALA    -0.5679 ****
 27 N      31.445000   33.498000   22.722000 N     4 SER    -0.4157 ****
 28 H      30.487000   33.787000   22.580000 H     4 SER     0.2719 ****
 29 CA     32.198000   34.258000   23.724000 C     4 SER    -0.0249 ****
 30 HA     32.598000   33.556000   24.456000 H     4 SER     0.0843 ****
 31 CB     33.368000   34.999000   23.065000 C     4 SER     0.2117 ****
 32 HB2    33.873000   34.345000   22.353000 H     4 SER     0.0352 ****
 33 HB3    32.992000   35.874000   22.533000 H     4 SER     0.0352 ****
 34 OG     34.301000   35.400000   24.051000 O     4 SER    -0.6546 ****
 35 HG     34.951000   34.695000   24.144000 H     4 SER     0.4275 ****
 36 C      31.278000   35.242000   24.464000 C     4 SER     0.5973 ****
 37 O      30.131000   35.441000   24.060000 O     4 SER    -0.5679 ****
 38 N      31.775000   35.865000   25.538000 N     5 NME    -0.4157 ****
 39 H      32.755000   35.715000   25.738000 H     5 NME     0.2719 ****
 40 CH3    31.032000   36.816000   26.361000 C     5 NME    -0.1490 ****
 41 HH31   30.140000   36.333000   26.766000 H     5 NME     0.0976 ****
 42 HH32   31.655000   37.172000   27.183000 H     5 NME     0.0976 ****
 43 HH33   30.721000   37.665000   25.750000 H     5 NME     0.0976 ****
@<TRIPOS>BOND
    1     5     6 1
    2     5     7 1
    3     2     3 1
    4     2     4 1
    5     2     5 1
    6     1     2 1
    7    15    16 1
    8    15    17 1
    9    11    12 1
   10    11    13 1
   11    11    14 1
   12     9    10 1
   13     9    11 1
   14     9    15 1
   15     7     8 1
   16     7     9 1
   17    25    26 1
   18    25    27 1
   19    21    22 1
   20    21    23 1
   21    21    24 1
   22    19    20 1
   23    19    21 1
   24    19    25 1
   25    17    18 1
   26    17    19 1
   27    36    37 1
   28    36    38 1
   29    34    35 1
   30    31    32 1
   31    31    33 1
   32    31    34 1
   33    29    30 1
   34    29    31 1
   35    29    36 1
   36    27    28 1
   37    27    29 1
   38    40    41 1
   39    40    42 1
   40    40    43 1
   41    38    39 1
   42    38    40 1
@<TRIPOS>SUBSTRUCTURE
      1  ACE              1 ****               0 ****  **** 
      2  ALA              7 ****               0 ****  **** 
      3  ALA             17 ****               0 ****  **** 
      4  SER             27 ****               0 ****  **** 
      5  NME             38 ****               0 ****  **** 
