@<TRIPOS>MOLECULE
default_name
   43    42     5     0     1 
SMALL
USER_CHARGES
@<TRIPOS>ATOM
  1 H1     25.340000   27.141000   21.559000 H     1 ACE     0.1123 ****
  2 CH3    25.927000   28.058000   21.525000 C     1 ACE    -0.3662 ****
  3 H2     25.282000   28.912000   21.722000 H     1 ACE     0.1123 ****
  4 H3     26.392000   28.161000   20.547000 H     1 ACE     0.1123 ****
  5 C      27.005000   27.988000   22.582000 C     1 ACE     0.5972 ****
  6 O      27.164000   26.959000   23.227000 O     1 ACE    -0.5679 ****
  7 N      27.740000   29.084000   22.760000 N     2 ALA    -0.4157 ****
  8 H      27.535000   29.906000   22.211000 H     2 ALA     0.2719 ****
  9 CA     28.823000   29.209000   23.735000 C     2 ALA     0.0337 ****
 10 HA     28.574000   28.612000   24.614000 H     2 ALA     0.0823 ****
 11 CB     30.112000   28.648000   23.120000 C     2 ALA    -0.1825 ****
 12 HB1    30.375000   29.220000   22.229000 H     2 ALA     0.0603 ****
 13 HB2    30.929000   28.718000   23.838000 H     2 ALA     0.0603 ****
 14 HB3    29.968000   27.600000   22.848000 H     2 ALA     0.0603 ****
 15 C      29.005000   30.669000   24.188000 C     2 ALA     0.5973 ****
 16 O      28.651000   31.598000   23.465000 O     2 ALA    -0.5679 ****
 17 N      29.505000   30.859000   25.414000 N     3 ALA    -0.4157 ****
 18 H      29.699000   30.035000   25.957000 H     3 ALA     0.2719 ****
 19 CA     30.099000   32.110000   25.899000 C     3 ALA     0.0337 ****
 20 HA     29.290000   32.835000   26.000000 H     3 ALA     0.0823 ****
 21 CB     30.664000   31.823000   27.299000 C     3 ALA    -0.1825 ****
 22 HB1    31.501000   31.127000   27.225000 H     3 ALA     0.0603 ****
 23 HB2    31.007000   32.746000   27.768000 H     3 ALA     0.0603 ****
 24 HB3    29.887000   31.386000   27.929000 H     3 ALA     0.0603 ****
 25 C      31.153000   32.755000   24.958000 C     3 ALA     0.5973 ****
 26 O      31.583000   32.163000   23.970000 O     3 ALA    -0.5679 ****
 27 N      31.705000   33.900000   25.388000 N     4 SER    -0.4157 ****
 28 H      31.313000   34.300000   26.224000 H     4 SER     0.2719 ****
 29 CA     32.603000   34.773000   24.606000 C     4 SER    -0.0249 ****
 30 HA     32.907000   35.582000   25.269000 H     4 SER     0.0843 ****
 31 CB     33.898000   34.031000   24.227000 C     4 SER     0.2117 ****
 32 HB2    34.244000   33.454000   25.085000 H     4 SER     0.0352 ****
 33 HB3    33.706000   33.348000   23.397000 H     4 SER     0.0352 ****
 34 OG     34.912000   34.947000   23.855000 O     4 SER    -0.6546 ****
 35 HG     35.720000   34.450000   23.686000 H     4 SER     0.4275 ****
 36 C      31.897000   35.452000   23.414000 C     4 SER     0.5973 ****
 37 O      30.673000   35.412000   23.313000 O     4 SER    -0.5679 ****
 38 N      32.650000   36.152000   22.559000 N     5 NME    -0.4157 ****
 39 H      33.650000   36.137000   22.718000 H     5 NME     0.2719 ****
 40 CH3    32.132000   36.896000   21.413000 C     5 NME    -0.1490 ****
 41 HH31   31.366000   37.599000   21.747000 H     5 NME     0.0976 ****
 42 HH32   32.938000   37.443000   20.923000 H     5 NME     0.0976 ****
 43 HH33   31.681000   36.201000   20.701000 H     5 NME     0.0976 ****
@<TRIPOS>BOND
    1     5     6 1
    2     5     7 1
    3     2     3 1
    4     2     4 1
    5     2     5 1
    6     1     2 1
    7    15    16 1
    8    15    17 1
    9    11    12 1
   10    11    13 1
   11    11    14 1
   12     9    10 1
   13     9    11 1
   14     9    15 1
   15     7     8 1
   16     7     9 1
   17    25    26 1
   18    25    27 1
   19    21    22 1
   20    21    23 1
   21    21    24 1
   22    19    20 1
   23    19    21 1
   24    19    25 1
   25    17    18 1
   26    17    19 1
   27    36    37 1
   28    36    38 1
   29    34    35 1
   30    31    32 1
   31    31    33 1
   32    31    34 1
   33    29    30 1
   34    29    31 1
   35    29    36 1
   36    27    28 1
   37    27    29 1
   38    40    41 1
   39    40    42 1
   40    40    43 1
   41    38    39 1
   42    38    40 1
@<TRIPOS>SUBSTRUCTURE
      1  ACE              1 ****               0 ****  **** 
      2  ALA              7 ****               0 ****  **** 
      3  ALA             17 ****               0 ****  **** 
      4  SER             27 ****               0 ****  **** 
      5  NME             38 ****               0 ****  **** 
