@<TRIPOS>MOLECULE
default_name
   43    42     5     0     1 
SMALL
USER_CHARGES
@<TRIPOS>ATOM
  1 H1     25.786000   26.136000   22.295000 H     1 ACE     0.1123 ****
  2 CH3    26.242000   27.114000   22.146000 C     1 ACE    -0.3662 ****
  3 H2     25.487000   27.890000   22.257000 H     1 ACE     0.1123 ****
  4 H3     26.685000   27.164000   21.153000 H     1 ACE     0.1123 ****
  5 C      27.321000   27.314000   23.185000 C     1 ACE     0.5972 ****
  6 O      27.551000   26.439000   24.009000 O     1 ACE    -0.5679 ****
  7 N      27.976000   28.472000   23.146000 N     2 ALA    -0.4157 ****
  8 H      27.704000   29.160000   22.460000 H     2 ALA     0.2719 ****
  9 CA     29.035000   28.861000   24.077000 C     2 ALA     0.0337 ****
 10 HA     28.826000   28.421000   25.054000 H     2 ALA     0.0823 ****
 11 CB     30.374000   28.305000   23.570000 C     2 ALA    -0.1825 ****
 12 HB1    30.604000   28.725000   22.589000 H     2 ALA     0.0603 ****
 13 HB2    31.173000   28.564000   24.265000 H     2 ALA     0.0603 ****
 14 HB3    30.317000   27.218000   23.491000 H     2 ALA     0.0603 ****
 15 C      29.090000   30.390000   24.246000 C     2 ALA     0.5973 ****
 16 O      28.600000   31.134000   23.396000 O     2 ALA    -0.5679 ****
 17 N      29.712000   30.860000   25.330000 N     3 ALA    -0.4157 ****
 18 H      30.148000   30.204000   25.957000 H     3 ALA     0.2719 ****
 19 CA     29.913000   32.283000   25.600000 C     3 ALA     0.0337 ****
 20 HA     29.113000   32.855000   25.125000 H     3 ALA     0.0823 ****
 21 CB     29.825000   32.518000   27.113000 C     3 ALA    -0.1825 ****
 22 HB1    30.616000   31.967000   27.623000 H     3 ALA     0.0603 ****
 23 HB2    29.941000   33.582000   27.325000 H     3 ALA     0.0603 ****
 24 HB3    28.854000   32.187000   27.484000 H     3 ALA     0.0603 ****
 25 C      31.257000   32.765000   25.024000 C     3 ALA     0.5973 ****
 26 O      32.284000   32.112000   25.205000 O     3 ALA    -0.5679 ****
 27 N      31.250000   33.904000   24.329000 N     4 SER    -0.4157 ****
 28 H      30.381000   34.411000   24.230000 H     4 SER     0.2719 ****
 29 CA     32.439000   34.544000   23.749000 C     4 SER    -0.0249 ****
 30 HA     33.270000   34.445000   24.448000 H     4 SER     0.0843 ****
 31 CB     32.825000   33.830000   22.447000 C     4 SER     0.2117 ****
 32 HB2    32.929000   32.761000   22.642000 H     4 SER     0.0352 ****
 33 HB3    32.040000   33.978000   21.703000 H     4 SER     0.0352 ****
 34 OG     34.054000   34.323000   21.947000 O     4 SER    -0.6546 ****
 35 HG     34.332000   33.758000   21.218000 H     4 SER     0.4275 ****
 36 C      32.187000   36.043000   23.519000 C     4 SER     0.5973 ****
 37 O      31.048000   36.500000   23.621000 O     4 SER    -0.5679 ****
 38 N      33.241000   36.811000   23.224000 N     5 NME    -0.4157 ****
 39 H      34.120000   36.334000   23.072000 H     5 NME     0.2719 ****
 40 CH3    33.180000   38.254000   23.002000 C     5 NME    -0.1490 ****
 41 HH31   32.785000   38.747000   23.892000 H     5 NME     0.0976 ****
 42 HH32   34.175000   38.644000   22.785000 H     5 NME     0.0976 ****
 43 HH33   32.516000   38.468000   22.162000 H     5 NME     0.0976 ****
@<TRIPOS>BOND
    1     5     6 1
    2     5     7 1
    3     2     3 1
    4     2     4 1
    5     2     5 1
    6     1     2 1
    7    15    16 1
    8    15    17 1
    9    11    12 1
   10    11    13 1
   11    11    14 1
   12     9    10 1
   13     9    11 1
   14     9    15 1
   15     7     8 1
   16     7     9 1
   17    25    26 1
   18    25    27 1
   19    21    22 1
   20    21    23 1
   21    21    24 1
   22    19    20 1
   23    19    21 1
   24    19    25 1
   25    17    18 1
   26    17    19 1
   27    36    37 1
   28    36    38 1
   29    34    35 1
   30    31    32 1
   31    31    33 1
   32    31    34 1
   33    29    30 1
   34    29    31 1
   35    29    36 1
   36    27    28 1
   37    27    29 1
   38    40    41 1
   39    40    42 1
   40    40    43 1
   41    38    39 1
   42    38    40 1
@<TRIPOS>SUBSTRUCTURE
      1  ACE              1 ****               0 ****  **** 
      2  ALA              7 ****               0 ****  **** 
      3  ALA             17 ****               0 ****  **** 
      4  SER             27 ****               0 ****  **** 
      5  NME             38 ****               0 ****  **** 
