@<TRIPOS>MOLECULE
default_name
   43    42     5     0     1 
SMALL
USER_CHARGES
@<TRIPOS>ATOM
  1 H1     26.185000   31.779000   23.803000 H     1 ACE     0.1123 ****
  2 CH3    26.902000   31.379000   23.088000 C     1 ACE    -0.3662 ****
  3 H2     27.633000   32.148000   22.839000 H     1 ACE     0.1123 ****
  4 H3     26.383000   31.052000   22.189000 H     1 ACE     0.1123 ****
  5 C      27.619000   30.207000   23.714000 C     1 ACE     0.5972 ****
  6 O      27.377000   29.882000   24.870000 O     1 ACE    -0.5679 ****
  7 N      28.511000   29.579000   22.951000 N     2 ALA    -0.4157 ****
  8 H      28.683000   29.950000   22.031000 H     2 ALA     0.2719 ****
  9 CA     29.455000   28.579000   23.453000 C     2 ALA     0.0337 ****
 10 HA     28.959000   27.960000   24.203000 H     2 ALA     0.0823 ****
 11 CB     29.869000   27.673000   22.284000 C     2 ALA    -0.1825 ****
 12 HB1    30.354000   28.264000   21.505000 H     2 ALA     0.0603 ****
 13 HB2    30.570000   26.917000   22.640000 H     2 ALA     0.0603 ****
 14 HB3    28.991000   27.177000   21.869000 H     2 ALA     0.0603 ****
 15 C      30.643000   29.293000   24.131000 C     2 ALA     0.5973 ****
 16 O      31.724000   29.418000   23.556000 O     2 ALA    -0.5679 ****
 17 N      30.441000   29.775000   25.362000 N     3 ALA    -0.4157 ****
 18 H      29.617000   29.412000   25.813000 H     3 ALA     0.2719 ****
 19 CA     30.744000   31.155000   25.781000 C     3 ALA     0.0337 ****
 20 HA     29.828000   31.584000   26.189000 H     3 ALA     0.0823 ****
 21 CB     31.756000   31.036000   26.936000 C     3 ALA    -0.1825 ****
 22 HB1    32.713000   30.674000   26.556000 H     3 ALA     0.0603 ****
 23 HB2    31.893000   32.000000   27.425000 H     3 ALA     0.0603 ****
 24 HB3    31.384000   30.331000   27.682000 H     3 ALA     0.0603 ****
 25 C      31.208000   32.128000   24.656000 C     3 ALA     0.5973 ****
 26 O      30.683000   32.092000   23.542000 O     3 ALA    -0.5679 ****
 27 N      32.056000   33.112000   24.988000 N     4 SER    -0.4157 ****
 28 H      32.403000   33.119000   25.931000 H     4 SER     0.2719 ****
 29 CA     32.347000   34.292000   24.152000 C     4 SER    -0.0249 ****
 30 HA     33.060000   34.908000   24.697000 H     4 SER     0.0843 ****
 31 CB     33.058000   33.850000   22.859000 C     4 SER     0.2117 ****
 32 HB2    33.829000   33.119000   23.109000 H     4 SER     0.0352 ****
 33 HB3    32.342000   33.383000   22.182000 H     4 SER     0.0352 ****
 34 OG     33.671000   34.948000   22.206000 O     4 SER    -0.6546 ****
 35 HG     34.178000   34.605000   21.462000 H     4 SER     0.4275 ****
 36 C      31.105000   35.182000   23.921000 C     4 SER     0.5973 ****
 37 O      30.101000   35.050000   24.621000 O     4 SER    -0.5679 ****
 38 N      31.192000   36.142000   22.994000 N     5 NME    -0.4157 ****
 39 H      32.058000   36.183000   22.470000 H     5 NME     0.2719 ****
 40 CH3    30.126000   37.088000   22.672000 C     5 NME    -0.1490 ****
 41 HH31   29.237000   36.541000   22.351000 H     5 NME     0.0976 ****
 42 HH32   29.873000   37.672000   23.559000 H     5 NME     0.0976 ****
 43 HH33   30.446000   37.759000   21.874000 H     5 NME     0.0976 ****
@<TRIPOS>BOND
    1     5     6 1
    2     5     7 1
    3     2     3 1
    4     2     4 1
    5     2     5 1
    6     1     2 1
    7    15    16 1
    8    15    17 1
    9    11    12 1
   10    11    13 1
   11    11    14 1
   12     9    10 1
   13     9    11 1
   14     9    15 1
   15     7     8 1
   16     7     9 1
   17    25    26 1
   18    25    27 1
   19    21    22 1
   20    21    23 1
   21    21    24 1
   22    19    20 1
   23    19    21 1
   24    19    25 1
   25    17    18 1
   26    17    19 1
   27    36    37 1
   28    36    38 1
   29    34    35 1
   30    31    32 1
   31    31    33 1
   32    31    34 1
   33    29    30 1
   34    29    31 1
   35    29    36 1
   36    27    28 1
   37    27    29 1
   38    40    41 1
   39    40    42 1
   40    40    43 1
   41    38    39 1
   42    38    40 1
@<TRIPOS>SUBSTRUCTURE
      1  ACE              1 ****               0 ****  **** 
      2  ALA              7 ****               0 ****  **** 
      3  ALA             17 ****               0 ****  **** 
      4  SER             27 ****               0 ****  **** 
      5  NME             38 ****               0 ****  **** 
