@<TRIPOS>MOLECULE
default_name
   43    42     5     0     1 
SMALL
USER_CHARGES
@<TRIPOS>ATOM
  1 H1     25.802000   25.595000   23.324000 H     1 ACE     0.1123 ****
  2 CH3    25.930000   26.650000   23.084000 C     1 ACE    -0.3662 ****
  3 H2     25.171000   27.237000   23.597000 H     1 ACE     0.1123 ****
  4 H3     25.845000   26.793000   22.008000 H     1 ACE     0.1123 ****
  5 C      27.299000   27.094000   23.541000 C     1 ACE     0.5972 ****
  6 O      28.056000   26.298000   24.082000 O     1 ACE    -0.5679 ****
  7 N      27.614000   28.369000   23.326000 N     2 ALA    -0.4157 ****
  8 H      26.925000   28.977000   22.907000 H     2 ALA     0.2719 ****
  9 CA     28.878000   28.991000   23.717000 C     2 ALA     0.0337 ****
 10 HA     29.232000   28.521000   24.636000 H     2 ALA     0.0823 ****
 11 CB     29.917000   28.745000   22.612000 C     2 ALA    -0.1825 ****
 12 HB1    29.584000   29.205000   21.680000 H     2 ALA     0.0603 ****
 13 HB2    30.877000   29.174000   22.898000 H     2 ALA     0.0603 ****
 14 HB3    30.044000   27.672000   22.456000 H     2 ALA     0.0603 ****
 15 C      28.695000   30.495000   23.991000 C     2 ALA     0.5973 ****
 16 O      27.720000   31.093000   23.542000 O     2 ALA    -0.5679 ****
 17 N      29.641000   31.091000   24.725000 N     3 ALA    -0.4157 ****
 18 H      30.398000   30.521000   25.062000 H     3 ALA     0.2719 ****
 19 CA     29.697000   32.529000   25.003000 C     3 ALA     0.0337 ****
 20 HA     28.741000   32.979000   24.726000 H     3 ALA     0.0823 ****
 21 CB     29.862000   32.750000   26.515000 C     3 ALA    -0.1825 ****
 22 HB1    30.769000   32.269000   26.881000 H     3 ALA     0.0603 ****
 23 HB2    29.909000   33.820000   26.724000 H     3 ALA     0.0603 ****
 24 HB3    29.002000   32.330000   27.040000 H     3 ALA     0.0603 ****
 25 C      30.752000   33.239000   24.129000 C     3 ALA     0.5973 ****
 26 O      30.457000   33.632000   23.005000 O     3 ALA    -0.5679 ****
 27 N      31.991000   33.365000   24.627000 N     4 SER    -0.4157 ****
 28 H      32.137000   33.027000   25.563000 H     4 SER     0.2719 ****
 29 CA     33.023000   34.269000   24.085000 C     4 SER    -0.0249 ****
 30 HA     33.912000   34.154000   24.704000 H     4 SER     0.0843 ****
 31 CB     33.430000   33.834000   22.664000 C     4 SER     0.2117 ****
 32 HB2    33.547000   32.749000   22.643000 H     4 SER     0.0352 ****
 33 HB3    32.654000   34.118000   21.952000 H     4 SER     0.0352 ****
 34 OG     34.656000   34.430000   22.280000 O     4 SER    -0.6546 ****
 35 HG     34.894000   34.093000   21.409000 H     4 SER     0.4275 ****
 36 C      32.620000   35.756000   24.198000 C     4 SER     0.5973 ****
 37 O      31.683000   36.092000   24.922000 O     4 SER    -0.5679 ****
 38 N      33.367000   36.657000   23.551000 N     5 NME    -0.4157 ****
 39 H      34.124000   36.292000   22.985000 H     5 NME     0.2719 ****
 40 CH3    33.136000   38.099000   23.574000 C     5 NME    -0.1490 ****
 41 HH31   33.202000   38.466000   24.599000 H     5 NME     0.0976 ****
 42 HH32   33.877000   38.610000   22.958000 H     5 NME     0.0976 ****
 43 HH33   32.137000   38.316000   23.191000 H     5 NME     0.0976 ****
@<TRIPOS>BOND
    1     5     6 1
    2     5     7 1
    3     2     3 1
    4     2     4 1
    5     2     5 1
    6     1     2 1
    7    15    16 1
    8    15    17 1
    9    11    12 1
   10    11    13 1
   11    11    14 1
   12     9    10 1
   13     9    11 1
   14     9    15 1
   15     7     8 1
   16     7     9 1
   17    25    26 1
   18    25    27 1
   19    21    22 1
   20    21    23 1
   21    21    24 1
   22    19    20 1
   23    19    21 1
   24    19    25 1
   25    17    18 1
   26    17    19 1
   27    36    37 1
   28    36    38 1
   29    34    35 1
   30    31    32 1
   31    31    33 1
   32    31    34 1
   33    29    30 1
   34    29    31 1
   35    29    36 1
   36    27    28 1
   37    27    29 1
   38    40    41 1
   39    40    42 1
   40    40    43 1
   41    38    39 1
   42    38    40 1
@<TRIPOS>SUBSTRUCTURE
      1  ACE              1 ****               0 ****  **** 
      2  ALA              7 ****               0 ****  **** 
      3  ALA             17 ****               0 ****  **** 
      4  SER             27 ****               0 ****  **** 
      5  NME             38 ****               0 ****  **** 
