@<TRIPOS>MOLECULE
default_name
   43    42     5     0     1 
SMALL
USER_CHARGES
@<TRIPOS>ATOM
  1 H1     26.648000   26.190000   26.730000 H     1 ACE     0.1123 ****
  2 CH3    26.487000   26.885000   25.907000 C     1 ACE    -0.3662 ****
  3 H2     25.960000   27.765000   26.269000 H     1 ACE     0.1123 ****
  4 H3     25.906000   26.399000   25.126000 H     1 ACE     0.1123 ****
  5 C      27.827000   27.299000   25.347000 C     1 ACE     0.5972 ****
  6 O      28.859000   26.852000   25.830000 O     1 ACE    -0.5679 ****
  7 N      27.807000   28.159000   24.331000 N     2 ALA    -0.4157 ****
  8 H      26.917000   28.511000   24.012000 H     2 ALA     0.2719 ****
  9 CA     28.995000   28.700000   23.670000 C     2 ALA     0.0337 ****
 10 HA     29.793000   28.800000   24.407000 H     2 ALA     0.0823 ****
 11 CB     29.454000   27.712000   22.587000 C     2 ALA    -0.1825 ****
 12 HB1    28.671000   27.593000   21.835000 H     2 ALA     0.0603 ****
 13 HB2    30.360000   28.081000   22.105000 H     2 ALA     0.0603 ****
 14 HB3    29.668000   26.742000   23.038000 H     2 ALA     0.0603 ****
 15 C      28.713000   30.096000   23.082000 C     2 ALA     0.5973 ****
 16 O      27.553000   30.442000   22.862000 O     2 ALA    -0.5679 ****
 17 N      29.788000   30.844000   22.800000 N     3 ALA    -0.4157 ****
 18 H      30.683000   30.413000   22.992000 H     3 ALA     0.2719 ****
 19 CA     29.905000   32.253000   22.380000 C     3 ALA     0.0337 ****
 20 HA     29.847000   32.326000   21.293000 H     3 ALA     0.0823 ****
 21 CB     28.790000   33.120000   23.014000 C     3 ALA    -0.1825 ****
 22 HB1    28.791000   33.008000   24.099000 H     3 ALA     0.0603 ****
 23 HB2    28.921000   34.170000   22.756000 H     3 ALA     0.0603 ****
 24 HB3    27.815000   32.834000   22.621000 H     3 ALA     0.0603 ****
 25 C      31.303000   32.748000   22.842000 C     3 ALA     0.5973 ****
 26 O      32.232000   31.944000   22.921000 O     3 ALA    -0.5679 ****
 27 N      31.476000   34.035000   23.159000 N     4 SER    -0.4157 ****
 28 H      30.677000   34.654000   23.121000 H     4 SER     0.2719 ****
 29 CA     32.706000   34.617000   23.714000 C     4 SER    -0.0249 ****
 30 HA     33.123000   33.927000   24.449000 H     4 SER     0.0843 ****
 31 CB     33.743000   34.813000   22.601000 C     4 SER     0.2117 ****
 32 HB2    33.891000   33.868000   22.077000 H     4 SER     0.0352 ****
 33 HB3    33.381000   35.558000   21.891000 H     4 SER     0.0352 ****
 34 OG     34.983000   35.233000   23.140000 O     4 SER    -0.6546 ****
 35 HG     35.645000   35.201000   22.442000 H     4 SER     0.4275 ****
 36 C      32.392000   35.941000   24.429000 C     4 SER     0.5973 ****
 37 O      31.294000   36.477000   24.273000 O     4 SER    -0.5679 ****
 38 N      33.338000   36.462000   25.218000 N     5 NME    -0.4157 ****
 39 H      34.238000   36.000000   25.212000 H     5 NME     0.2719 ****
 40 CH3    33.189000   37.696000   25.987000 C     5 NME    -0.1490 ****
 41 HH31   32.347000   37.601000   26.676000 H     5 NME     0.0976 ****
 42 HH32   34.098000   37.898000   26.554000 H     5 NME     0.0976 ****
 43 HH33   32.993000   38.529000   25.310000 H     5 NME     0.0976 ****
@<TRIPOS>BOND
    1     5     6 1
    2     5     7 1
    3     2     3 1
    4     2     4 1
    5     2     5 1
    6     1     2 1
    7    15    16 1
    8    15    17 1
    9    11    12 1
   10    11    13 1
   11    11    14 1
   12     9    10 1
   13     9    11 1
   14     9    15 1
   15     7     8 1
   16     7     9 1
   17    25    26 1
   18    25    27 1
   19    21    22 1
   20    21    23 1
   21    21    24 1
   22    19    20 1
   23    19    21 1
   24    19    25 1
   25    17    18 1
   26    17    19 1
   27    36    37 1
   28    36    38 1
   29    34    35 1
   30    31    32 1
   31    31    33 1
   32    31    34 1
   33    29    30 1
   34    29    31 1
   35    29    36 1
   36    27    28 1
   37    27    29 1
   38    40    41 1
   39    40    42 1
   40    40    43 1
   41    38    39 1
   42    38    40 1
@<TRIPOS>SUBSTRUCTURE
      1  ACE              1 ****               0 ****  **** 
      2  ALA              7 ****               0 ****  **** 
      3  ALA             17 ****               0 ****  **** 
      4  SER             27 ****               0 ****  **** 
      5  NME             38 ****               0 ****  **** 
