@<TRIPOS>MOLECULE
default_name
   43    42     5     0     1 
SMALL
USER_CHARGES
@<TRIPOS>ATOM
  1 H1     26.684000   25.095000   24.661000 H     1 ACE     0.1123 ****
  2 CH3    26.474000   26.127000   24.382000 C     1 ACE    -0.3662 ****
  3 H2     25.960000   26.629000   25.199000 H     1 ACE     0.1123 ****
  4 H3     25.855000   26.145000   23.487000 H     1 ACE     0.1123 ****
  5 C      27.779000   26.834000   24.101000 C     1 ACE     0.5972 ****
  6 O      28.840000   26.233000   24.205000 O     1 ACE    -0.5679 ****
  7 N      27.698000   28.116000   23.752000 N     2 ALA    -0.4157 ****
  8 H      26.790000   28.556000   23.724000 H     2 ALA     0.2719 ****
  9 CA     28.848000   28.971000   23.460000 C     2 ALA     0.0337 ****
 10 HA     29.689000   28.651000   24.077000 H     2 ALA     0.0823 ****
 11 CB     29.234000   28.800000   21.983000 C     2 ALA    -0.1825 ****
 12 HB1    28.406000   29.111000   21.344000 H     2 ALA     0.0603 ****
 13 HB2    30.110000   29.408000   21.753000 H     2 ALA     0.0603 ****
 14 HB3    29.470000   27.754000   21.782000 H     2 ALA     0.0603 ****
 15 C      28.544000   30.443000   23.798000 C     2 ALA     0.5973 ****
 16 O      27.382000   30.836000   23.884000 O     2 ALA    -0.5679 ****
 17 N      29.596000   31.249000   23.977000 N     3 ALA    -0.4157 ****
 18 H      30.514000   30.853000   23.863000 H     3 ALA     0.2719 ****
 19 CA     29.498000   32.690000   24.228000 C     3 ALA     0.0337 ****
 20 HA     28.612000   33.073000   23.716000 H     3 ALA     0.0823 ****
 21 CB     29.305000   32.943000   25.732000 C     3 ALA    -0.1825 ****
 22 HB1    30.124000   32.510000   26.307000 H     3 ALA     0.0603 ****
 23 HB2    29.262000   34.017000   25.918000 H     3 ALA     0.0603 ****
 24 HB3    28.366000   32.494000   26.060000 H     3 ALA     0.0603 ****
 25 C      30.697000   33.451000   23.633000 C     3 ALA     0.5973 ****
 26 O      30.582000   34.040000   22.563000 O     3 ALA    -0.5679 ****
 27 N      31.861000   33.386000   24.297000 N     4 SER    -0.4157 ****
 28 H      31.850000   32.894000   25.175000 H     4 SER     0.2719 ****
 29 CA     33.013000   34.275000   24.054000 C     4 SER    -0.0249 ****
 30 HA     33.797000   33.986000   24.754000 H     4 SER     0.0843 ****
 31 CB     33.588000   34.042000   22.645000 C     4 SER     0.2117 ****
 32 HB2    33.639000   32.969000   22.452000 H     4 SER     0.0352 ****
 33 HB3    32.939000   34.503000   21.898000 H     4 SER     0.0352 ****
 34 OG     34.891000   34.586000   22.530000 O     4 SER    -0.6546 ****
 35 HG     35.229000   34.376000   21.653000 H     4 SER     0.4275 ****
 36 C      32.693000   35.754000   24.366000 C     4 SER     0.5973 ****
 37 O      31.673000   36.053000   24.986000 O     4 SER    -0.5679 ****
 38 N      33.595000   36.675000   24.009000 N     5 NME    -0.4157 ****
 39 H      34.407000   36.340000   23.506000 H     5 NME     0.2719 ****
 40 CH3    33.459000   38.109000   24.253000 C     5 NME    -0.1490 ****
 41 HH31   32.552000   38.479000   23.769000 H     5 NME     0.0976 ****
 42 HH32   33.381000   38.295000   25.326000 H     5 NME     0.0976 ****
 43 HH33   34.322000   38.644000   23.855000 H     5 NME     0.0976 ****
@<TRIPOS>BOND
    1     5     6 1
    2     5     7 1
    3     2     3 1
    4     2     4 1
    5     2     5 1
    6     1     2 1
    7    15    16 1
    8    15    17 1
    9    11    12 1
   10    11    13 1
   11    11    14 1
   12     9    10 1
   13     9    11 1
   14     9    15 1
   15     7     8 1
   16     7     9 1
   17    25    26 1
   18    25    27 1
   19    21    22 1
   20    21    23 1
   21    21    24 1
   22    19    20 1
   23    19    21 1
   24    19    25 1
   25    17    18 1
   26    17    19 1
   27    36    37 1
   28    36    38 1
   29    34    35 1
   30    31    32 1
   31    31    33 1
   32    31    34 1
   33    29    30 1
   34    29    31 1
   35    29    36 1
   36    27    28 1
   37    27    29 1
   38    40    41 1
   39    40    42 1
   40    40    43 1
   41    38    39 1
   42    38    40 1
@<TRIPOS>SUBSTRUCTURE
      1  ACE              1 ****               0 ****  **** 
      2  ALA              7 ****               0 ****  **** 
      3  ALA             17 ****               0 ****  **** 
      4  SER             27 ****               0 ****  **** 
      5  NME             38 ****               0 ****  **** 
