@<TRIPOS>MOLECULE
default_name
   43    42     5     0     1 
SMALL
USER_CHARGES
@<TRIPOS>ATOM
  1 H1     25.592000   30.129000   22.559000 H     1 ACE     0.1123 ****
  2 CH3    26.510000   29.927000   22.007000 C     1 ACE    -0.3662 ****
  3 H2     26.829000   30.829000   21.489000 H     1 ACE     0.1123 ****
  4 H3     26.335000   29.127000   21.291000 H     1 ACE     0.1123 ****
  5 C      27.583000   29.504000   22.982000 C     1 ACE     0.5972 ****
  6 O      27.341000   29.444000   24.181000 O     1 ACE    -0.5679 ****
  7 N      28.776000   29.209000   22.470000 N     2 ALA    -0.4157 ****
  8 H      28.910000   29.303000   21.477000 H     2 ALA     0.2719 ****
  9 CA     29.938000   28.852000   23.284000 C     2 ALA     0.0337 ****
 10 HA     29.625000   28.137000   24.047000 H     2 ALA     0.0823 ****
 11 CB     30.965000   28.153000   22.381000 C     2 ALA    -0.1825 ****
 12 HB1    31.286000   28.826000   21.584000 H     2 ALA     0.0603 ****
 13 HB2    31.835000   27.868000   22.973000 H     2 ALA     0.0603 ****
 14 HB3    30.526000   27.256000   21.943000 H     2 ALA     0.0603 ****
 15 C      30.516000   30.092000   24.000000 C     2 ALA     0.5973 ****
 16 O      31.310000   30.821000   23.411000 O     2 ALA    -0.5679 ****
 17 N      30.086000   30.302000   25.252000 N     3 ALA    -0.4157 ****
 18 H      29.388000   29.651000   25.577000 H     3 ALA     0.2719 ****
 19 CA     30.418000   31.375000   26.208000 C     3 ALA     0.0337 ****
 20 HA     29.496000   31.923000   26.402000 H     3 ALA     0.0823 ****
 21 CB     30.822000   30.698000   27.527000 C     3 ALA    -0.1825 ****
 22 HB1    31.735000   30.117000   27.381000 H     3 ALA     0.0603 ****
 23 HB2    31.007000   31.458000   28.287000 H     3 ALA     0.0603 ****
 24 HB3    30.025000   30.040000   27.872000 H     3 ALA     0.0603 ****
 25 C      31.452000   32.434000   25.749000 C     3 ALA     0.5973 ****
 26 O      32.591000   32.461000   26.213000 O     3 ALA    -0.5679 ****
 27 N      31.040000   33.320000   24.838000 N     4 SER    -0.4157 ****
 28 H      30.097000   33.250000   24.486000 H     4 SER     0.2719 ****
 29 CA     31.879000   34.363000   24.236000 C     4 SER    -0.0249 ****
 30 HA     32.501000   34.810000   25.012000 H     4 SER     0.0843 ****
 31 CB     32.802000   33.726000   23.189000 C     4 SER     0.2117 ****
 32 HB2    33.350000   32.903000   23.648000 H     4 SER     0.0352 ****
 33 HB3    32.202000   33.330000   22.367000 H     4 SER     0.0352 ****
 34 OG     33.733000   34.670000   22.689000 O     4 SER    -0.6546 ****
 35 HG     34.394000   34.189000   22.182000 H     4 SER     0.4275 ****
 36 C      31.009000   35.470000   23.619000 C     4 SER     0.5973 ****
 37 O      29.795000   35.306000   23.485000 O     4 SER    -0.5679 ****
 38 N      31.621000   36.601000   23.252000 N     5 NME    -0.4157 ****
 39 H      32.631000   36.606000   23.311000 H     5 NME     0.2719 ****
 40 CH3    30.946000   37.761000   22.674000 C     5 NME    -0.1490 ****
 41 HH31   30.185000   38.126000   23.366000 H     5 NME     0.0976 ****
 42 HH32   31.666000   38.556000   22.476000 H     5 NME     0.0976 ****
 43 HH33   30.459000   37.474000   21.740000 H     5 NME     0.0976 ****
@<TRIPOS>BOND
    1     5     6 1
    2     5     7 1
    3     2     3 1
    4     2     4 1
    5     2     5 1
    6     1     2 1
    7    15    16 1
    8    15    17 1
    9    11    12 1
   10    11    13 1
   11    11    14 1
   12     9    10 1
   13     9    11 1
   14     9    15 1
   15     7     8 1
   16     7     9 1
   17    25    26 1
   18    25    27 1
   19    21    22 1
   20    21    23 1
   21    21    24 1
   22    19    20 1
   23    19    21 1
   24    19    25 1
   25    17    18 1
   26    17    19 1
   27    36    37 1
   28    36    38 1
   29    34    35 1
   30    31    32 1
   31    31    33 1
   32    31    34 1
   33    29    30 1
   34    29    31 1
   35    29    36 1
   36    27    28 1
   37    27    29 1
   38    40    41 1
   39    40    42 1
   40    40    43 1
   41    38    39 1
   42    38    40 1
@<TRIPOS>SUBSTRUCTURE
      1  ACE              1 ****               0 ****  **** 
      2  ALA              7 ****               0 ****  **** 
      3  ALA             17 ****               0 ****  **** 
      4  SER             27 ****               0 ****  **** 
      5  NME             38 ****               0 ****  **** 
