@<TRIPOS>MOLECULE
default_name
   43    42     5     0     1 
SMALL
USER_CHARGES
@<TRIPOS>ATOM
  1 H1     25.966000   32.058000   23.184000 H     1 ACE     0.1123 ****
  2 CH3    26.967000   32.020000   22.757000 C     1 ACE    -0.3662 ****
  3 H2     27.533000   32.896000   23.070000 H     1 ACE     0.1123 ****
  4 H3     26.902000   31.996000   21.671000 H     1 ACE     0.1123 ****
  5 C      27.665000   30.773000   23.244000 C     1 ACE     0.5972 ****
  6 O      27.111000   30.030000   24.044000 O     1 ACE    -0.5679 ****
  7 N      28.891000   30.551000   22.776000 N     2 ALA    -0.4157 ****
  8 H      29.297000   31.264000   22.181000 H     2 ALA     0.2719 ****
  9 CA     29.740000   29.414000   23.152000 C     2 ALA     0.0337 ****
 10 HA     29.107000   28.590000   23.485000 H     2 ALA     0.0823 ****
 11 CB     30.494000   28.946000   21.898000 C     2 ALA    -0.1825 ****
 12 HB1    31.135000   29.746000   21.525000 H     2 ALA     0.0603 ****
 13 HB2    31.114000   28.083000   22.145000 H     2 ALA     0.0603 ****
 14 HB3    29.783000   28.660000   21.122000 H     2 ALA     0.0603 ****
 15 C      30.666000   29.786000   24.330000 C     2 ALA     0.5973 ****
 16 O      31.882000   29.864000   24.173000 O     2 ALA    -0.5679 ****
 17 N      30.073000   30.155000   25.475000 N     3 ALA    -0.4157 ****
 18 H      29.076000   30.016000   25.537000 H     3 ALA     0.2719 ****
 19 CA     30.698000   30.918000   26.572000 C     3 ALA     0.0337 ****
 20 HA     29.898000   31.153000   27.274000 H     3 ALA     0.0823 ****
 21 CB     31.692000   30.027000   27.334000 C     3 ALA    -0.1825 ****
 22 HB1    32.555000   29.802000   26.706000 H     3 ALA     0.0603 ****
 23 HB2    32.037000   30.547000   28.228000 H     3 ALA     0.0603 ****
 24 HB3    31.209000   29.096000   27.631000 H     3 ALA     0.0603 ****
 25 C      31.284000   32.295000   26.162000 C     3 ALA     0.5973 ****
 26 O      31.837000   33.011000   26.993000 O     3 ALA    -0.5679 ****
 27 N      31.133000   32.687000   24.894000 N     4 SER    -0.4157 ****
 28 H      30.677000   32.045000   24.265000 H     4 SER     0.2719 ****
 29 CA     31.560000   33.951000   24.293000 C     4 SER    -0.0249 ****
 30 HA     31.313000   34.771000   24.967000 H     4 SER     0.0843 ****
 31 CB     33.080000   33.931000   24.088000 C     4 SER     0.2117 ****
 32 HB2    33.567000   33.714000   25.040000 H     4 SER     0.0352 ****
 33 HB3    33.342000   33.149000   23.373000 H     4 SER     0.0352 ****
 34 OG     33.540000   35.184000   23.616000 O     4 SER    -0.6546 ****
 35 HG     34.502000   35.183000   23.655000 H     4 SER     0.4275 ****
 36 C      30.815000   34.164000   22.962000 C     4 SER     0.5973 ****
 37 O      30.151000   33.248000   22.465000 O     4 SER    -0.5679 ****
 38 N      30.904000   35.369000   22.390000 N     5 NME    -0.4157 ****
 39 H      31.545000   36.024000   22.818000 H     5 NME     0.2719 ****
 40 CH3    30.243000   35.750000   21.143000 C     5 NME    -0.1490 ****
 41 HH31   29.162000   35.646000   21.252000 H     5 NME     0.0976 ****
 42 HH32   30.482000   36.784000   20.893000 H     5 NME     0.0976 ****
 43 HH33   30.579000   35.098000   20.335000 H     5 NME     0.0976 ****
@<TRIPOS>BOND
    1     5     6 1
    2     5     7 1
    3     2     3 1
    4     2     4 1
    5     2     5 1
    6     1     2 1
    7    15    16 1
    8    15    17 1
    9    11    12 1
   10    11    13 1
   11    11    14 1
   12     9    10 1
   13     9    11 1
   14     9    15 1
   15     7     8 1
   16     7     9 1
   17    25    26 1
   18    25    27 1
   19    21    22 1
   20    21    23 1
   21    21    24 1
   22    19    20 1
   23    19    21 1
   24    19    25 1
   25    17    18 1
   26    17    19 1
   27    36    37 1
   28    36    38 1
   29    34    35 1
   30    31    32 1
   31    31    33 1
   32    31    34 1
   33    29    30 1
   34    29    31 1
   35    29    36 1
   36    27    28 1
   37    27    29 1
   38    40    41 1
   39    40    42 1
   40    40    43 1
   41    38    39 1
   42    38    40 1
@<TRIPOS>SUBSTRUCTURE
      1  ACE              1 ****               0 ****  **** 
      2  ALA              7 ****               0 ****  **** 
      3  ALA             17 ****               0 ****  **** 
      4  SER             27 ****               0 ****  **** 
      5  NME             38 ****               0 ****  **** 
