@<TRIPOS>MOLECULE
default_name
   43    42     5     0     1 
SMALL
USER_CHARGES
@<TRIPOS>ATOM
  1 H1     24.278000   30.604000   23.820000 H     1 ACE     0.1123 ****
  2 CH3    25.252000   30.811000   23.379000 C     1 ACE    -0.3662 ****
  3 H2     25.471000   31.874000   23.461000 H     1 ACE     0.1123 ****
  4 H3     25.251000   30.510000   22.333000 H     1 ACE     0.1123 ****
  5 C      26.304000   30.025000   24.125000 C     1 ACE     0.5972 ****
  6 O      25.985000   29.305000   25.062000 O     1 ACE    -0.5679 ****
  7 N      27.560000   30.168000   23.709000 N     2 ALA    -0.4157 ****
  8 H      27.749000   30.803000   22.949000 H     2 ALA     0.2719 ****
  9 CA     28.718000   29.524000   24.328000 C     2 ALA     0.0337 ****
 10 HA     28.545000   29.451000   25.403000 H     2 ALA     0.0823 ****
 11 CB     28.867000   28.105000   23.759000 C     2 ALA    -0.1825 ****
 12 HB1    29.034000   28.152000   22.682000 H     2 ALA     0.0603 ****
 13 HB2    29.710000   27.600000   24.231000 H     2 ALA     0.0603 ****
 14 HB3    27.960000   27.531000   23.957000 H     2 ALA     0.0603 ****
 15 C      29.996000   30.353000   24.108000 C     2 ALA     0.5973 ****
 16 O      30.076000   31.137000   23.159000 O     2 ALA    -0.5679 ****
 17 N      31.004000   30.154000   24.967000 N     3 ALA    -0.4157 ****
 18 H      30.854000   29.505000   25.722000 H     3 ALA     0.2719 ****
 19 CA     32.253000   30.927000   24.973000 C     3 ALA     0.0337 ****
 20 HA     32.790000   30.674000   25.888000 H     3 ALA     0.0823 ****
 21 CB     33.133000   30.463000   23.796000 C     3 ALA    -0.1825 ****
 22 HB1    34.133000   30.889000   23.882000 H     3 ALA     0.0603 ****
 23 HB2    33.222000   29.376000   23.808000 H     3 ALA     0.0603 ****
 24 HB3    32.690000   30.771000   22.847000 H     3 ALA     0.0603 ****
 25 C      31.992000   32.453000   25.045000 C     3 ALA     0.5973 ****
 26 O      31.002000   32.887000   25.627000 O     3 ALA    -0.5679 ****
 27 N      32.892000   33.274000   24.493000 N     4 SER    -0.4157 ****
 28 H      33.683000   32.859000   24.028000 H     4 SER     0.2719 ****
 29 CA     32.761000   34.743000   24.444000 C     4 SER    -0.0249 ****
 30 HA     32.329000   35.069000   25.392000 H     4 SER     0.0843 ****
 31 CB     34.158000   35.373000   24.345000 C     4 SER     0.2117 ****
 32 HB2    34.801000   34.952000   25.119000 H     4 SER     0.0352 ****
 33 HB3    34.589000   35.153000   23.368000 H     4 SER     0.0352 ****
 34 OG     34.093000   36.770000   24.526000 O     4 SER    -0.6546 ****
 35 HG     33.442000   37.106000   23.887000 H     4 SER     0.4275 ****
 36 C      31.814000   35.265000   23.335000 C     4 SER     0.5973 ****
 37 O      31.945000   36.413000   22.907000 O     4 SER    -0.5679 ****
 38 N      30.897000   34.433000   22.822000 N     5 NME    -0.4157 ****
 39 H      30.809000   33.514000   23.229000 H     5 NME     0.2719 ****
 40 CH3    29.967000   34.786000   21.753000 C     5 NME    -0.1490 ****
 41 HH31   30.520000   35.145000   20.883000 H     5 NME     0.0976 ****
 42 HH32   29.378000   33.912000   21.470000 H     5 NME     0.0976 ****
 43 HH33   29.297000   35.578000   22.094000 H     5 NME     0.0976 ****
@<TRIPOS>BOND
    1     5     6 1
    2     5     7 1
    3     2     3 1
    4     2     4 1
    5     2     5 1
    6     1     2 1
    7    15    16 1
    8    15    17 1
    9    11    12 1
   10    11    13 1
   11    11    14 1
   12     9    10 1
   13     9    11 1
   14     9    15 1
   15     7     8 1
   16     7     9 1
   17    25    26 1
   18    25    27 1
   19    21    22 1
   20    21    23 1
   21    21    24 1
   22    19    20 1
   23    19    21 1
   24    19    25 1
   25    17    18 1
   26    17    19 1
   27    36    37 1
   28    36    38 1
   29    34    35 1
   30    31    32 1
   31    31    33 1
   32    31    34 1
   33    29    30 1
   34    29    31 1
   35    29    36 1
   36    27    28 1
   37    27    29 1
   38    40    41 1
   39    40    42 1
   40    40    43 1
   41    38    39 1
   42    38    40 1
@<TRIPOS>SUBSTRUCTURE
      1  ACE              1 ****               0 ****  **** 
      2  ALA              7 ****               0 ****  **** 
      3  ALA             17 ****               0 ****  **** 
      4  SER             27 ****               0 ****  **** 
      5  NME             38 ****               0 ****  **** 
