@<TRIPOS>MOLECULE
default_name
   43    42     5     0     1 
SMALL
USER_CHARGES
@<TRIPOS>ATOM
  1 H1     25.318000   27.646000   24.406000 H     1 ACE     0.1123 ****
  2 CH3    26.002000   27.670000   23.558000 C     1 ACE    -0.3662 ****
  3 H2     25.630000   28.368000   22.810000 H     1 ACE     0.1123 ****
  4 H3     26.085000   26.673000   23.130000 H     1 ACE     0.1123 ****
  5 C      27.360000   28.126000   24.038000 C     1 ACE     0.5972 ****
  6 O      27.538000   28.398000   25.218000 O     1 ACE    -0.5679 ****
  7 N      28.321000   28.209000   23.120000 N     2 ALA    -0.4157 ****
  8 H      28.095000   27.988000   22.165000 H     2 ALA     0.2719 ****
  9 CA     29.673000   28.688000   23.407000 C     2 ALA     0.0337 ****
 10 HA     30.018000   28.231000   24.336000 H     2 ALA     0.0823 ****
 11 CB     30.603000   28.214000   22.280000 C     2 ALA    -0.1825 ****
 12 HB1    30.281000   28.632000   21.325000 H     2 ALA     0.0603 ****
 13 HB2    31.621000   28.548000   22.485000 H     2 ALA     0.0603 ****
 14 HB3    30.593000   27.125000   22.221000 H     2 ALA     0.0603 ****
 15 C      29.699000   30.219000   23.597000 C     2 ALA     0.5973 ****
 16 O      29.836000   30.975000   22.634000 O     2 ALA    -0.5679 ****
 17 N      29.556000   30.680000   24.842000 N     3 ALA    -0.4157 ****
 18 H      29.394000   30.016000   25.584000 H     3 ALA     0.2719 ****
 19 CA     29.646000   32.095000   25.193000 C     3 ALA     0.0337 ****
 20 HA     28.939000   32.645000   24.570000 H     3 ALA     0.0823 ****
 21 CB     29.227000   32.270000   26.658000 C     3 ALA    -0.1825 ****
 22 HB1    29.916000   31.729000   27.309000 H     3 ALA     0.0603 ****
 23 HB2    29.247000   33.328000   26.921000 H     3 ALA     0.0603 ****
 24 HB3    28.216000   31.886000   26.804000 H     3 ALA     0.0603 ****
 25 C      31.057000   32.655000   24.926000 C     3 ALA     0.5973 ****
 26 O      32.058000   32.049000   25.308000 O     3 ALA    -0.5679 ****
 27 N      31.135000   33.818000   24.276000 N     4 SER    -0.4157 ****
 28 H      30.280000   34.287000   24.009000 H     4 SER     0.2719 ****
 29 CA     32.385000   34.501000   23.922000 C     4 SER    -0.0249 ****
 30 HA     33.087000   34.407000   24.751000 H     4 SER     0.0843 ****
 31 CB     33.004000   33.822000   22.693000 C     4 SER     0.2117 ****
 32 HB2    33.103000   32.753000   22.887000 H     4 SER     0.0352 ****
 33 HB3    32.349000   33.963000   21.831000 H     4 SER     0.0352 ****
 34 OG     34.285000   34.354000   22.411000 O     4 SER    -0.6546 ****
 35 HG     34.695000   33.805000   21.735000 H     4 SER     0.4275 ****
 36 C      32.136000   35.998000   23.676000 C     4 SER     0.5973 ****
 37 O      30.985000   36.427000   23.583000 O     4 SER    -0.5679 ****
 38 N      33.205000   36.796000   23.582000 N     5 NME    -0.4157 ****
 39 H      34.108000   36.341000   23.577000 H     5 NME     0.2719 ****
 40 CH3    33.146000   38.241000   23.375000 C     5 NME    -0.1490 ****
 41 HH31   32.588000   38.707000   24.189000 H     5 NME     0.0976 ****
 42 HH32   34.153000   38.658000   23.342000 H     5 NME     0.0976 ****
 43 HH33   32.635000   38.456000   22.434000 H     5 NME     0.0976 ****
@<TRIPOS>BOND
    1     5     6 1
    2     5     7 1
    3     2     3 1
    4     2     4 1
    5     2     5 1
    6     1     2 1
    7    15    16 1
    8    15    17 1
    9    11    12 1
   10    11    13 1
   11    11    14 1
   12     9    10 1
   13     9    11 1
   14     9    15 1
   15     7     8 1
   16     7     9 1
   17    25    26 1
   18    25    27 1
   19    21    22 1
   20    21    23 1
   21    21    24 1
   22    19    20 1
   23    19    21 1
   24    19    25 1
   25    17    18 1
   26    17    19 1
   27    36    37 1
   28    36    38 1
   29    34    35 1
   30    31    32 1
   31    31    33 1
   32    31    34 1
   33    29    30 1
   34    29    31 1
   35    29    36 1
   36    27    28 1
   37    27    29 1
   38    40    41 1
   39    40    42 1
   40    40    43 1
   41    38    39 1
   42    38    40 1
@<TRIPOS>SUBSTRUCTURE
      1  ACE              1 ****               0 ****  **** 
      2  ALA              7 ****               0 ****  **** 
      3  ALA             17 ****               0 ****  **** 
      4  SER             27 ****               0 ****  **** 
      5  NME             38 ****               0 ****  **** 
