@<TRIPOS>MOLECULE
default_name
   43    42     5     0     1 
SMALL
USER_CHARGES
@<TRIPOS>ATOM
  1 H1     28.284000   30.364000   20.462000 H     1 ACE     0.1123 ****
  2 CH3    28.984000   29.697000   20.964000 C     1 ACE    -0.3662 ****
  3 H2     29.959000   30.178000   21.038000 H     1 ACE     0.1123 ****
  4 H3     29.067000   28.768000   20.404000 H     1 ACE     0.1123 ****
  5 C      28.470000   29.403000   22.353000 C     1 ACE     0.5972 ****
  6 O      27.438000   29.926000   22.751000 O     1 ACE    -0.5679 ****
  7 N      29.209000   28.581000   23.097000 N     2 ALA    -0.4157 ****
  8 H      30.052000   28.213000   22.688000 H     2 ALA     0.2719 ****
  9 CA     28.926000   28.211000   24.491000 C     2 ALA     0.0337 ****
 10 HA     27.848000   28.281000   24.651000 H     2 ALA     0.0823 ****
 11 CB     29.326000   26.740000   24.681000 C     2 ALA    -0.1825 ****
 12 HB1    30.405000   26.628000   24.566000 H     2 ALA     0.0603 ****
 13 HB2    29.043000   26.409000   25.682000 H     2 ALA     0.0603 ****
 14 HB3    28.813000   26.115000   23.949000 H     2 ALA     0.0603 ****
 15 C      29.584000   29.167000   25.520000 C     2 ALA     0.5973 ****
 16 O      30.028000   28.725000   26.576000 O     2 ALA    -0.5679 ****
 17 N      29.657000   30.460000   25.175000 N     3 ALA    -0.4157 ****
 18 H      29.193000   30.680000   24.310000 H     3 ALA     0.2719 ****
 19 CA     30.543000   31.534000   25.654000 C     3 ALA     0.0337 ****
 20 HA     29.980000   32.183000   26.325000 H     3 ALA     0.0823 ****
 21 CB     31.793000   31.022000   26.392000 C     3 ALA    -0.1825 ****
 22 HB1    32.315000   30.281000   25.784000 H     3 ALA     0.0603 ****
 23 HB2    32.469000   31.854000   26.594000 H     3 ALA     0.0603 ****
 24 HB3    31.512000   30.579000   27.348000 H     3 ALA     0.0603 ****
 25 C      31.008000   32.350000   24.431000 C     3 ALA     0.5973 ****
 26 O      31.341000   31.790000   23.385000 O     3 ALA    -0.5679 ****
 27 N      30.971000   33.680000   24.537000 N     4 SER    -0.4157 ****
 28 H      30.716000   34.095000   25.424000 H     4 SER     0.2719 ****
 29 CA     31.423000   34.613000   23.496000 C     4 SER    -0.0249 ****
 30 HA     32.342000   34.226000   23.056000 H     4 SER     0.0843 ****
 31 CB     30.363000   34.721000   22.391000 C     4 SER     0.2117 ****
 32 HB2    29.992000   33.728000   22.132000 H     4 SER     0.0352 ****
 33 HB3    29.527000   35.326000   22.745000 H     4 SER     0.0352 ****
 34 OG     30.927000   35.310000   21.235000 O     4 SER    -0.6546 ****
 35 HG     31.200000   34.602000   20.641000 H     4 SER     0.4275 ****
 36 C      31.733000   35.993000   24.101000 C     4 SER     0.5973 ****
 37 O      31.515000   36.203000   25.294000 O     4 SER    -0.5679 ****
 38 N      32.243000   36.928000   23.292000 N     5 NME    -0.4157 ****
 39 H      32.299000   36.697000   22.308000 H     5 NME     0.2719 ****
 40 CH3    32.608000   38.278000   23.714000 C     5 NME    -0.1490 ****
 41 HH31   33.363000   38.227000   24.501000 H     5 NME     0.0976 ****
 42 HH32   33.006000   38.842000   22.869000 H     5 NME     0.0976 ****
 43 HH33   31.729000   38.791000   24.107000 H     5 NME     0.0976 ****
@<TRIPOS>BOND
    1     5     6 1
    2     5     7 1
    3     2     3 1
    4     2     4 1
    5     2     5 1
    6     1     2 1
    7    15    16 1
    8    15    17 1
    9    11    12 1
   10    11    13 1
   11    11    14 1
   12     9    10 1
   13     9    11 1
   14     9    15 1
   15     7     8 1
   16     7     9 1
   17    25    26 1
   18    25    27 1
   19    21    22 1
   20    21    23 1
   21    21    24 1
   22    19    20 1
   23    19    21 1
   24    19    25 1
   25    17    18 1
   26    17    19 1
   27    36    37 1
   28    36    38 1
   29    34    35 1
   30    31    32 1
   31    31    33 1
   32    31    34 1
   33    29    30 1
   34    29    31 1
   35    29    36 1
   36    27    28 1
   37    27    29 1
   38    40    41 1
   39    40    42 1
   40    40    43 1
   41    38    39 1
   42    38    40 1
@<TRIPOS>SUBSTRUCTURE
      1  ACE              1 ****               0 ****  **** 
      2  ALA              7 ****               0 ****  **** 
      3  ALA             17 ****               0 ****  **** 
      4  SER             27 ****               0 ****  **** 
      5  NME             38 ****               0 ****  **** 
