@<TRIPOS>MOLECULE
default_name
   43    42     5     0     1 
SMALL
USER_CHARGES
@<TRIPOS>ATOM
  1 H1     25.223000   28.030000   23.727000 H     1 ACE     0.1123 ****
  2 CH3    26.032000   28.061000   22.998000 C     1 ACE    -0.3662 ****
  3 H2     25.828000   28.836000   22.261000 H     1 ACE     0.1123 ****
  4 H3     26.119000   27.093000   22.508000 H     1 ACE     0.1123 ****
  5 C      27.323000   28.379000   23.714000 C     1 ACE     0.5972 ****
  6 O      27.330000   28.553000   24.926000 O     1 ACE    -0.5679 ****
  7 N      28.421000   28.453000   22.965000 N     2 ALA    -0.4157 ****
  8 H      28.335000   28.319000   21.971000 H     2 ALA     0.2719 ****
  9 CA     29.738000   28.809000   23.493000 C     2 ALA     0.0337 ****
 10 HA     29.901000   28.266000   24.426000 H     2 ALA     0.0823 ****
 11 CB     30.803000   28.344000   22.489000 C     2 ALA    -0.1825 ****
 12 HB1    30.664000   28.847000   21.531000 H     2 ALA     0.0603 ****
 13 HB2    31.795000   28.588000   22.874000 H     2 ALA     0.0603 ****
 14 HB3    30.735000   27.265000   22.347000 H     2 ALA     0.0603 ****
 15 C      29.831000   30.318000   23.803000 C     2 ALA     0.5973 ****
 16 O      30.139000   31.122000   22.922000 O     2 ALA    -0.5679 ****
 17 N      29.535000   30.698000   25.050000 N     3 ALA    -0.4157 ****
 18 H      29.213000   29.989000   25.691000 H     3 ALA     0.2719 ****
 19 CA     29.726000   32.048000   25.586000 C     3 ALA     0.0337 ****
 20 HA     28.954000   32.687000   25.155000 H     3 ALA     0.0823 ****
 21 CB     29.509000   32.009000   27.103000 C     3 ALA    -0.1825 ****
 22 HB1    30.257000   31.366000   27.570000 H     3 ALA     0.0603 ****
 23 HB2    29.603000   33.016000   27.512000 H     3 ALA     0.0603 ****
 24 HB3    28.512000   31.627000   27.328000 H     3 ALA     0.0603 ****
 25 C      31.098000   32.646000   25.208000 C     3 ALA     0.5973 ****
 26 O      32.140000   32.107000   25.578000 O     3 ALA    -0.5679 ****
 27 N      31.094000   33.755000   24.465000 N     4 SER    -0.4157 ****
 28 H      30.210000   34.165000   24.202000 H     4 SER     0.2719 ****
 29 CA     32.295000   34.417000   23.943000 C     4 SER    -0.0249 ****
 30 HA     33.071000   34.401000   24.708000 H     4 SER     0.0843 ****
 31 CB     32.806000   33.637000   22.724000 C     4 SER     0.2117 ****
 32 HB2    32.940000   32.590000   23.001000 H     4 SER     0.0352 ****
 33 HB3    32.071000   33.694000   21.920000 H     4 SER     0.0352 ****
 34 OG     34.047000   34.151000   22.275000 O     4 SER    -0.6546 ****
 35 HG     34.395000   33.548000   21.612000 H     4 SER     0.4275 ****
 36 C      32.000000   35.884000   23.590000 C     4 SER     0.5973 ****
 37 O      30.838000   36.294000   23.565000 O     4 SER    -0.5679 ****
 38 N      33.043000   36.678000   23.330000 N     5 NME    -0.4157 ****
 39 H      33.949000   36.231000   23.282000 H     5 NME     0.2719 ****
 40 CH3    32.944000   38.099000   23.003000 C     5 NME    -0.1490 ****
 41 HH31   32.453000   38.631000   23.820000 H     5 NME     0.0976 ****
 42 HH32   33.937000   38.519000   22.843000 H     5 NME     0.0976 ****
 43 HH33   32.348000   38.226000   22.097000 H     5 NME     0.0976 ****
@<TRIPOS>BOND
    1     5     6 1
    2     5     7 1
    3     2     3 1
    4     2     4 1
    5     2     5 1
    6     1     2 1
    7    15    16 1
    8    15    17 1
    9    11    12 1
   10    11    13 1
   11    11    14 1
   12     9    10 1
   13     9    11 1
   14     9    15 1
   15     7     8 1
   16     7     9 1
   17    25    26 1
   18    25    27 1
   19    21    22 1
   20    21    23 1
   21    21    24 1
   22    19    20 1
   23    19    21 1
   24    19    25 1
   25    17    18 1
   26    17    19 1
   27    36    37 1
   28    36    38 1
   29    34    35 1
   30    31    32 1
   31    31    33 1
   32    31    34 1
   33    29    30 1
   34    29    31 1
   35    29    36 1
   36    27    28 1
   37    27    29 1
   38    40    41 1
   39    40    42 1
   40    40    43 1
   41    38    39 1
   42    38    40 1
@<TRIPOS>SUBSTRUCTURE
      1  ACE              1 ****               0 ****  **** 
      2  ALA              7 ****               0 ****  **** 
      3  ALA             17 ****               0 ****  **** 
      4  SER             27 ****               0 ****  **** 
      5  NME             38 ****               0 ****  **** 
