@<TRIPOS>MOLECULE
default_name
   43    42     5     0     1 
SMALL
USER_CHARGES
@<TRIPOS>ATOM
  1 H1     29.287000   26.318000   23.392000 H     1 ACE     0.1123 ****
  2 CH3    28.604000   27.119000   23.112000 C     1 ACE    -0.3662 ****
  3 H2     27.693000   27.046000   23.704000 H     1 ACE     0.1123 ****
  4 H3     28.366000   27.042000   22.053000 H     1 ACE     0.1123 ****
  5 C      29.271000   28.447000   23.380000 C     1 ACE     0.5972 ****
  6 O      30.403000   28.485000   23.843000 O     1 ACE    -0.5679 ****
  7 N      28.563000   29.538000   23.095000 N     2 ALA    -0.4157 ****
  8 H      27.634000   29.429000   22.719000 H     2 ALA     0.2719 ****
  9 CA     29.058000   30.904000   23.255000 C     2 ALA     0.0337 ****
 10 HA     29.859000   30.913000   23.989000 H     2 ALA     0.0823 ****
 11 CB     29.670000   31.350000   21.919000 C     2 ALA    -0.1825 ****
 12 HB1    28.918000   31.309000   21.130000 H     2 ALA     0.0603 ****
 13 HB2    30.037000   32.373000   21.999000 H     2 ALA     0.0603 ****
 14 HB3    30.503000   30.696000   21.656000 H     2 ALA     0.0603 ****
 15 C      27.921000   31.849000   23.705000 C     2 ALA     0.5973 ****
 16 O      26.908000   31.917000   23.012000 O     2 ALA    -0.5679 ****
 17 N      28.053000   32.613000   24.808000 N     3 ALA    -0.4157 ****
 18 H      27.331000   33.304000   24.964000 H     3 ALA     0.2719 ****
 19 CA     28.943000   32.403000   25.966000 C     3 ALA     0.0337 ****
 20 HA     28.500000   33.032000   26.739000 H     3 ALA     0.0823 ****
 21 CB     28.827000   30.984000   26.553000 C     3 ALA    -0.1825 ****
 22 HB1    29.379000   30.258000   25.958000 H     3 ALA     0.0603 ****
 23 HB2    29.249000   30.979000   27.559000 H     3 ALA     0.0603 ****
 24 HB3    27.780000   30.686000   26.613000 H     3 ALA     0.0603 ****
 25 C      30.372000   32.979000   25.866000 C     3 ALA     0.5973 ****
 26 O      31.070000   33.056000   26.872000 O     3 ALA    -0.5679 ****
 27 N      30.825000   33.350000   24.666000 N     4 SER    -0.4157 ****
 28 H      30.188000   33.343000   23.882000 H     4 SER     0.2719 ****
 29 CA     32.176000   33.860000   24.394000 C     4 SER    -0.0249 ****
 30 HA     32.489000   34.497000   25.222000 H     4 SER     0.0843 ****
 31 CB     33.155000   32.681000   24.305000 C     4 SER     0.2117 ****
 32 HB2    33.069000   32.076000   25.209000 H     4 SER     0.0352 ****
 33 HB3    32.903000   32.062000   23.442000 H     4 SER     0.0352 ****
 34 OG     34.489000   33.140000   24.189000 O     4 SER    -0.6546 ****
 35 HG     35.076000   32.382000   24.283000 H     4 SER     0.4275 ****
 36 C      32.186000   34.707000   23.112000 C     4 SER     0.5973 ****
 37 O      31.199000   34.720000   22.375000 O     4 SER    -0.5679 ****
 38 N      33.284000   35.423000   22.849000 N     5 NME    -0.4157 ****
 39 H      34.076000   35.278000   23.462000 H     5 NME     0.2719 ****
 40 CH3    33.446000   36.297000   21.689000 C     5 NME    -0.1490 ****
 41 HH31   32.670000   37.065000   21.695000 H     5 NME     0.0976 ****
 42 HH32   34.427000   36.775000   21.711000 H     5 NME     0.0976 ****
 43 HH33   33.352000   35.712000   20.772000 H     5 NME     0.0976 ****
@<TRIPOS>BOND
    1     5     6 1
    2     5     7 1
    3     2     3 1
    4     2     4 1
    5     2     5 1
    6     1     2 1
    7    15    16 1
    8    15    17 1
    9    11    12 1
   10    11    13 1
   11    11    14 1
   12     9    10 1
   13     9    11 1
   14     9    15 1
   15     7     8 1
   16     7     9 1
   17    25    26 1
   18    25    27 1
   19    21    22 1
   20    21    23 1
   21    21    24 1
   22    19    20 1
   23    19    21 1
   24    19    25 1
   25    17    18 1
   26    17    19 1
   27    36    37 1
   28    36    38 1
   29    34    35 1
   30    31    32 1
   31    31    33 1
   32    31    34 1
   33    29    30 1
   34    29    31 1
   35    29    36 1
   36    27    28 1
   37    27    29 1
   38    40    41 1
   39    40    42 1
   40    40    43 1
   41    38    39 1
   42    38    40 1
@<TRIPOS>SUBSTRUCTURE
      1  ACE              1 ****               0 ****  **** 
      2  ALA              7 ****               0 ****  **** 
      3  ALA             17 ****               0 ****  **** 
      4  SER             27 ****               0 ****  **** 
      5  NME             38 ****               0 ****  **** 
