@<TRIPOS>MOLECULE
default_name
   43    42     5     0     1 
SMALL
USER_CHARGES
@<TRIPOS>ATOM
  1 H1     25.994000   25.976000   22.472000 H     1 ACE     0.1123 ****
  2 CH3    26.420000   26.953000   22.249000 C     1 ACE    -0.3662 ****
  3 H2     25.632000   27.703000   22.241000 H     1 ACE     0.1123 ****
  4 H3     26.915000   26.924000   21.280000 H     1 ACE     0.1123 ****
  5 C      27.432000   27.301000   23.315000 C     1 ACE     0.5972 ****
  6 O      27.651000   26.522000   24.234000 O     1 ACE    -0.5679 ****
  7 N      28.044000   28.476000   23.194000 N     2 ALA    -0.4157 ****
  8 H      27.785000   29.084000   22.431000 H     2 ALA     0.2719 ****
  9 CA     29.027000   29.003000   24.141000 C     2 ALA     0.0337 ****
 10 HA     28.763000   28.667000   25.145000 H     2 ALA     0.0823 ****
 11 CB     30.413000   28.443000   23.786000 C     2 ALA    -0.1825 ****
 12 HB1    30.697000   28.764000   22.782000 H     2 ALA     0.0603 ****
 13 HB2    31.155000   28.800000   24.500000 H     2 ALA     0.0603 ****
 14 HB3    30.389000   27.352000   23.820000 H     2 ALA     0.0603 ****
 15 C      29.026000   30.543000   24.138000 C     2 ALA     0.5973 ****
 16 O      28.585000   31.158000   23.172000 O     2 ALA    -0.5679 ****
 17 N      29.542000   31.148000   25.213000 N     3 ALA    -0.4157 ****
 18 H      29.867000   30.562000   25.964000 H     3 ALA     0.2719 ****
 19 CA     29.627000   32.598000   25.416000 C     3 ALA     0.0337 ****
 20 HA     28.610000   32.994000   25.374000 H     3 ALA     0.0823 ****
 21 CB     30.166000   32.878000   26.827000 C     3 ALA    -0.1825 ****
 22 HB1    31.162000   32.451000   26.951000 H     3 ALA     0.0603 ****
 23 HB2    30.221000   33.957000   26.985000 H     3 ALA     0.0603 ****
 24 HB3    29.495000   32.450000   27.572000 H     3 ALA     0.0603 ****
 25 C      30.408000   33.342000   24.311000 C     3 ALA     0.5973 ****
 26 O      29.820000   34.073000   23.521000 O     3 ALA    -0.5679 ****
 27 N      31.742000   33.204000   24.305000 N     4 SER    -0.4157 ****
 28 H      32.140000   32.611000   25.013000 H     4 SER     0.2719 ****
 29 CA     32.670000   34.080000   23.567000 C     4 SER    -0.0249 ****
 30 HA     33.679000   33.718000   23.757000 H     4 SER     0.0843 ****
 31 CB     32.440000   33.940000   22.050000 C     4 SER     0.2117 ****
 32 HB2    32.328000   32.883000   21.802000 H     4 SER     0.0352 ****
 33 HB3    31.528000   34.465000   21.762000 H     4 SER     0.0352 ****
 34 OG     33.531000   34.466000   21.316000 O     4 SER    -0.6546 ****
 35 HG     33.368000   34.301000   20.381000 H     4 SER     0.4275 ****
 36 C      32.637000   35.535000   24.083000 C     4 SER     0.5973 ****
 37 O      32.139000   35.796000   25.179000 O     4 SER    -0.5679 ****
 38 N      33.234000   36.475000   23.341000 N     5 NME    -0.4157 ****
 39 H      33.628000   36.169000   22.460000 H     5 NME     0.2719 ****
 40 CH3    33.312000   37.890000   23.696000 C     5 NME    -0.1490 ****
 41 HH31   32.304000   38.296000   23.805000 H     5 NME     0.0976 ****
 42 HH32   33.836000   38.002000   24.647000 H     5 NME     0.0976 ****
 43 HH33   33.843000   38.444000   22.922000 H     5 NME     0.0976 ****
@<TRIPOS>BOND
    1     5     6 1
    2     5     7 1
    3     2     3 1
    4     2     4 1
    5     2     5 1
    6     1     2 1
    7    15    16 1
    8    15    17 1
    9    11    12 1
   10    11    13 1
   11    11    14 1
   12     9    10 1
   13     9    11 1
   14     9    15 1
   15     7     8 1
   16     7     9 1
   17    25    26 1
   18    25    27 1
   19    21    22 1
   20    21    23 1
   21    21    24 1
   22    19    20 1
   23    19    21 1
   24    19    25 1
   25    17    18 1
   26    17    19 1
   27    36    37 1
   28    36    38 1
   29    34    35 1
   30    31    32 1
   31    31    33 1
   32    31    34 1
   33    29    30 1
   34    29    31 1
   35    29    36 1
   36    27    28 1
   37    27    29 1
   38    40    41 1
   39    40    42 1
   40    40    43 1
   41    38    39 1
   42    38    40 1
@<TRIPOS>SUBSTRUCTURE
      1  ACE              1 ****               0 ****  **** 
      2  ALA              7 ****               0 ****  **** 
      3  ALA             17 ****               0 ****  **** 
      4  SER             27 ****               0 ****  **** 
      5  NME             38 ****               0 ****  **** 
