@<TRIPOS>MOLECULE
default_name
   43    42     5     0     1 
SMALL
USER_CHARGES
@<TRIPOS>ATOM
  1 H1     27.955000   29.587000   20.572000 H     1 ACE     0.1123 ****
  2 CH3    28.913000   29.972000   20.915000 C     1 ACE    -0.3662 ****
  3 H2     29.151000   30.889000   20.378000 H     1 ACE     0.1123 ****
  4 H3     29.694000   29.235000   20.741000 H     1 ACE     0.1123 ****
  5 C      28.834000   30.274000   22.393000 C     1 ACE     0.5972 ****
  6 O      29.052000   31.409000   22.801000 O     1 ACE    -0.5679 ****
  7 N      28.520000   29.257000   23.194000 N     2 ALA    -0.4157 ****
  8 H      28.383000   28.349000   22.782000 H     2 ALA     0.2719 ****
  9 CA     28.492000   29.348000   24.654000 C     2 ALA     0.0337 ****
 10 HA     27.968000   30.262000   24.939000 H     2 ALA     0.0823 ****
 11 CB     27.687000   28.158000   25.197000 C     2 ALA    -0.1825 ****
 12 HB1    28.163000   27.219000   24.911000 H     2 ALA     0.0603 ****
 13 HB2    27.646000   28.213000   26.286000 H     2 ALA     0.0603 ****
 14 HB3    26.671000   28.185000   24.803000 H     2 ALA     0.0603 ****
 15 C      29.925000   29.416000   25.225000 C     2 ALA     0.5973 ****
 16 O      30.549000   28.378000   25.427000 O     2 ALA    -0.5679 ****
 17 N      30.398000   30.652000   25.440000 N     3 ALA    -0.4157 ****
 18 H      29.753000   31.382000   25.183000 H     3 ALA     0.2719 ****
 19 CA     31.747000   31.135000   25.802000 C     3 ALA     0.0337 ****
 20 HA     31.628000   31.735000   26.705000 H     3 ALA     0.0823 ****
 21 CB     32.751000   30.026000   26.165000 C     3 ALA    -0.1825 ****
 22 HB1    32.940000   29.391000   25.298000 H     3 ALA     0.0603 ****
 23 HB2    33.694000   30.476000   26.476000 H     3 ALA     0.0603 ****
 24 HB3    32.365000   29.422000   26.987000 H     3 ALA     0.0603 ****
 25 C      32.263000   32.106000   24.718000 C     3 ALA     0.5973 ****
 26 O      33.255000   31.852000   24.039000 O     3 ALA    -0.5679 ****
 27 N      31.549000   33.220000   24.531000 N     4 SER    -0.4157 ****
 28 H      30.766000   33.411000   25.139000 H     4 SER     0.2719 ****
 29 CA     31.832000   34.247000   23.522000 C     4 SER    -0.0249 ****
 30 HA     32.911000   34.383000   23.443000 H     4 SER     0.0843 ****
 31 CB     31.308000   33.781000   22.157000 C     4 SER     0.2117 ****
 32 HB2    31.703000   32.787000   21.942000 H     4 SER     0.0352 ****
 33 HB3    30.218000   33.728000   22.184000 H     4 SER     0.0352 ****
 34 OG     31.716000   34.668000   21.131000 O     4 SER    -0.6546 ****
 35 HG     31.488000   34.268000   20.286000 H     4 SER     0.4275 ****
 36 C      31.209000   35.591000   23.933000 C     4 SER     0.5973 ****
 37 O      30.420000   35.642000   24.879000 O     4 SER    -0.5679 ****
 38 N      31.566000   36.677000   23.240000 N     5 NME    -0.4157 ****
 39 H      32.146000   36.521000   22.426000 H     5 NME     0.2719 ****
 40 CH3    31.088000   38.030000   23.513000 C     5 NME    -0.1490 ****
 41 HH31   31.356000   38.316000   24.532000 H     5 NME     0.0976 ****
 42 HH32   31.534000   38.736000   22.811000 H     5 NME     0.0976 ****
 43 HH33   30.001000   38.063000   23.416000 H     5 NME     0.0976 ****
@<TRIPOS>BOND
    1     5     6 1
    2     5     7 1
    3     2     3 1
    4     2     4 1
    5     2     5 1
    6     1     2 1
    7    15    16 1
    8    15    17 1
    9    11    12 1
   10    11    13 1
   11    11    14 1
   12     9    10 1
   13     9    11 1
   14     9    15 1
   15     7     8 1
   16     7     9 1
   17    25    26 1
   18    25    27 1
   19    21    22 1
   20    21    23 1
   21    21    24 1
   22    19    20 1
   23    19    21 1
   24    19    25 1
   25    17    18 1
   26    17    19 1
   27    36    37 1
   28    36    38 1
   29    34    35 1
   30    31    32 1
   31    31    33 1
   32    31    34 1
   33    29    30 1
   34    29    31 1
   35    29    36 1
   36    27    28 1
   37    27    29 1
   38    40    41 1
   39    40    42 1
   40    40    43 1
   41    38    39 1
   42    38    40 1
@<TRIPOS>SUBSTRUCTURE
      1  ACE              1 ****               0 ****  **** 
      2  ALA              7 ****               0 ****  **** 
      3  ALA             17 ****               0 ****  **** 
      4  SER             27 ****               0 ****  **** 
      5  NME             38 ****               0 ****  **** 
