@<TRIPOS>MOLECULE
default_name
   43    42     5     0     1 
SMALL
USER_CHARGES
@<TRIPOS>ATOM
  1 H1     25.264000   28.392000   24.053000 H     1 ACE     0.1123 ****
  2 CH3    26.069000   28.264000   23.329000 C     1 ACE    -0.3662 ****
  3 H2     25.910000   28.935000   22.487000 H     1 ACE     0.1123 ****
  4 H3     26.088000   27.232000   22.985000 H     1 ACE     0.1123 ****
  5 C      27.383000   28.596000   23.994000 C     1 ACE     0.5972 ****
  6 O      27.412000   28.947000   25.167000 O     1 ACE    -0.5679 ****
  7 N      28.479000   28.488000   23.245000 N     2 ALA    -0.4157 ****
  8 H      28.376000   28.217000   22.281000 H     2 ALA     0.2719 ****
  9 CA     29.818000   28.839000   23.716000 C     2 ALA     0.0337 ****
 10 HA     29.942000   28.465000   24.734000 H     2 ALA     0.0823 ****
 11 CB     30.845000   28.122000   22.826000 C     2 ALA    -0.1825 ****
 12 HB1    30.740000   28.449000   21.790000 H     2 ALA     0.0603 ****
 13 HB2    31.853000   28.359000   23.169000 H     2 ALA     0.0603 ****
 14 HB3    30.696000   27.043000   22.882000 H     2 ALA     0.0603 ****
 15 C      30.014000   30.371000   23.743000 C     2 ALA     0.5973 ****
 16 O      30.399000   30.960000   22.739000 O     2 ALA    -0.5679 ****
 17 N      29.740000   30.990000   24.899000 N     3 ALA    -0.4157 ****
 18 H      29.369000   30.399000   25.628000 H     3 ALA     0.2719 ****
 19 CA     29.781000   32.427000   25.222000 C     3 ALA     0.0337 ****
 20 HA     28.744000   32.768000   25.245000 H     3 ALA     0.0823 ****
 21 CB     30.333000   32.578000   26.647000 C     3 ALA    -0.1825 ****
 22 HB1    31.361000   32.219000   26.696000 H     3 ALA     0.0603 ****
 23 HB2    30.305000   33.629000   26.940000 H     3 ALA     0.0603 ****
 24 HB3    29.719000   32.007000   27.345000 H     3 ALA     0.0603 ****
 25 C      30.498000   33.375000   24.232000 C     3 ALA     0.5973 ****
 26 O      29.885000   34.318000   23.743000 O     3 ALA    -0.5679 ****
 27 N      31.803000   33.176000   24.003000 N     4 SER    -0.4157 ****
 28 H      32.206000   32.345000   24.404000 H     4 SER     0.2719 ****
 29 CA     32.649000   33.937000   23.061000 C     4 SER    -0.0249 ****
 30 HA     33.659000   33.545000   23.181000 H     4 SER     0.0843 ****
 31 CB     32.246000   33.619000   21.612000 C     4 SER     0.2117 ****
 32 HB2    32.135000   32.540000   21.491000 H     4 SER     0.0352 ****
 33 HB3    31.294000   34.100000   21.381000 H     4 SER     0.0352 ****
 34 OG     33.242000   34.076000   20.721000 O     4 SER    -0.6546 ****
 35 HG     33.396000   35.012000   20.928000 H     4 SER     0.4275 ****
 36 C      32.780000   35.459000   23.305000 C     4 SER     0.5973 ****
 37 O      33.371000   36.159000   22.482000 O     4 SER    -0.5679 ****
 38 N      32.275000   35.983000   24.429000 N     5 NME    -0.4157 ****
 39 H      31.744000   35.370000   25.026000 H     5 NME     0.2719 ****
 40 CH3    32.334000   37.401000   24.777000 C     5 NME    -0.1490 ****
 41 HH31   31.895000   37.568000   25.761000 H     5 NME     0.0976 ****
 42 HH32   33.372000   37.739000   24.781000 H     5 NME     0.0976 ****
 43 HH33   31.781000   37.981000   24.035000 H     5 NME     0.0976 ****
@<TRIPOS>BOND
    1     5     6 1
    2     5     7 1
    3     2     3 1
    4     2     4 1
    5     2     5 1
    6     1     2 1
    7    15    16 1
    8    15    17 1
    9    11    12 1
   10    11    13 1
   11    11    14 1
   12     9    10 1
   13     9    11 1
   14     9    15 1
   15     7     8 1
   16     7     9 1
   17    25    26 1
   18    25    27 1
   19    21    22 1
   20    21    23 1
   21    21    24 1
   22    19    20 1
   23    19    21 1
   24    19    25 1
   25    17    18 1
   26    17    19 1
   27    36    37 1
   28    36    38 1
   29    34    35 1
   30    31    32 1
   31    31    33 1
   32    31    34 1
   33    29    30 1
   34    29    31 1
   35    29    36 1
   36    27    28 1
   37    27    29 1
   38    40    41 1
   39    40    42 1
   40    40    43 1
   41    38    39 1
   42    38    40 1
@<TRIPOS>SUBSTRUCTURE
      1  ACE              1 ****               0 ****  **** 
      2  ALA              7 ****               0 ****  **** 
      3  ALA             17 ****               0 ****  **** 
      4  SER             27 ****               0 ****  **** 
      5  NME             38 ****               0 ****  **** 
