@<TRIPOS>MOLECULE
default_name
   43    42     5     0     1 
SMALL
USER_CHARGES
@<TRIPOS>ATOM
  1 H1     26.913000   32.760000   22.477000 H     1 ACE     0.1123 ****
  2 CH3    27.567000   32.027000   22.006000 C     1 ACE    -0.3662 ****
  3 H2     28.483000   32.514000   21.679000 H     1 ACE     0.1123 ****
  4 H3     27.061000   31.583000   21.151000 H     1 ACE     0.1123 ****
  5 C      27.890000   30.944000   23.007000 C     1 ACE     0.5972 ****
  6 O      27.313000   30.910000   24.083000 O     1 ACE    -0.5679 ****
  7 N      28.824000   30.059000   22.658000 N     2 ALA    -0.4157 ****
  8 H      29.267000   30.178000   21.762000 H     2 ALA     0.2719 ****
  9 CA     29.151000   28.845000   23.423000 C     2 ALA     0.0337 ****
 10 HA     28.211000   28.374000   23.718000 H     2 ALA     0.0823 ****
 11 CB     29.880000   27.884000   22.472000 C     2 ALA    -0.1825 ****
 12 HB1    30.840000   28.308000   22.174000 H     2 ALA     0.0603 ****
 13 HB2    30.056000   26.933000   22.976000 H     2 ALA     0.0603 ****
 14 HB3    29.270000   27.700000   21.586000 H     2 ALA     0.0603 ****
 15 C      29.949000   29.064000   24.735000 C     2 ALA     0.5973 ****
 16 O      30.323000   28.089000   25.380000 O     2 ALA    -0.5679 ****
 17 N      30.209000   30.323000   25.109000 N     3 ALA    -0.4157 ****
 18 H      29.748000   31.030000   24.561000 H     3 ALA     0.2719 ****
 19 CA     30.986000   30.809000   26.268000 C     3 ALA     0.0337 ****
 20 HA     30.427000   30.647000   27.191000 H     3 ALA     0.0823 ****
 21 CB     32.349000   30.095000   26.348000 C     3 ALA    -0.1825 ****
 22 HB1    32.864000   30.144000   25.387000 H     3 ALA     0.0603 ****
 23 HB2    32.968000   30.572000   27.109000 H     3 ALA     0.0603 ****
 24 HB3    32.220000   29.052000   26.636000 H     3 ALA     0.0603 ****
 25 C      31.289000   32.316000   26.122000 C     3 ALA     0.5973 ****
 26 O      31.417000   33.029000   27.111000 O     3 ALA    -0.5679 ****
 27 N      31.371000   32.808000   24.882000 N     4 SER    -0.4157 ****
 28 H      31.291000   32.162000   24.110000 H     4 SER     0.2719 ****
 29 CA     31.455000   34.225000   24.516000 C     4 SER    -0.0249 ****
 30 HA     30.792000   34.799000   25.165000 H     4 SER     0.0843 ****
 31 CB     32.887000   34.736000   24.726000 C     4 SER     0.2117 ****
 32 HB2    33.191000   34.533000   25.754000 H     4 SER     0.0352 ****
 33 HB3    33.565000   34.214000   24.047000 H     4 SER     0.0352 ****
 34 OG     32.961000   36.130000   24.494000 O     4 SER    -0.6546 ****
 35 HG     33.803000   36.449000   24.835000 H     4 SER     0.4275 ****
 36 C      30.985000   34.409000   23.064000 C     4 SER     0.5973 ****
 37 O      30.793000   33.421000   22.350000 O     4 SER    -0.5679 ****
 38 N      30.776000   35.656000   22.630000 N     5 NME    -0.4157 ****
 39 H      31.044000   36.403000   23.257000 H     5 NME     0.2719 ****
 40 CH3    30.296000   36.002000   21.294000 C     5 NME    -0.1490 ****
 41 HH31   29.300000   35.584000   21.140000 H     5 NME     0.0976 ****
 42 HH32   30.252000   37.087000   21.180000 H     5 NME     0.0976 ****
 43 HH33   30.971000   35.590000   20.541000 H     5 NME     0.0976 ****
@<TRIPOS>BOND
    1     5     6 1
    2     5     7 1
    3     2     3 1
    4     2     4 1
    5     2     5 1
    6     1     2 1
    7    15    16 1
    8    15    17 1
    9    11    12 1
   10    11    13 1
   11    11    14 1
   12     9    10 1
   13     9    11 1
   14     9    15 1
   15     7     8 1
   16     7     9 1
   17    25    26 1
   18    25    27 1
   19    21    22 1
   20    21    23 1
   21    21    24 1
   22    19    20 1
   23    19    21 1
   24    19    25 1
   25    17    18 1
   26    17    19 1
   27    36    37 1
   28    36    38 1
   29    34    35 1
   30    31    32 1
   31    31    33 1
   32    31    34 1
   33    29    30 1
   34    29    31 1
   35    29    36 1
   36    27    28 1
   37    27    29 1
   38    40    41 1
   39    40    42 1
   40    40    43 1
   41    38    39 1
   42    38    40 1
@<TRIPOS>SUBSTRUCTURE
      1  ACE              1 ****               0 ****  **** 
      2  ALA              7 ****               0 ****  **** 
      3  ALA             17 ****               0 ****  **** 
      4  SER             27 ****               0 ****  **** 
      5  NME             38 ****               0 ****  **** 
