@<TRIPOS>MOLECULE
default_name
   43    42     5     0     1 
SMALL
USER_CHARGES
@<TRIPOS>ATOM
  1 H1     25.030000   28.110000   23.475000 H     1 ACE     0.1123 ****
  2 CH3    25.917000   27.972000   22.859000 C     1 ACE    -0.3662 ****
  3 H2     25.862000   28.626000   21.990000 H     1 ACE     0.1123 ****
  4 H3     25.983000   26.933000   22.540000 H     1 ACE     0.1123 ****
  5 C      27.139000   28.325000   23.674000 C     1 ACE     0.5972 ****
  6 O      27.020000   28.696000   24.835000 O     1 ACE    -0.5679 ****
  7 N      28.318000   28.209000   23.066000 N     2 ALA    -0.4157 ****
  8 H      28.337000   27.922000   22.102000 H     2 ALA     0.2719 ****
  9 CA     29.588000   28.574000   23.691000 C     2 ALA     0.0337 ****
 10 HA     29.600000   28.195000   24.715000 H     2 ALA     0.0823 ****
 11 CB     30.723000   27.881000   22.924000 C     2 ALA    -0.1825 ****
 12 HB1    30.734000   28.215000   21.885000 H     2 ALA     0.0603 ****
 13 HB2    31.679000   28.134000   23.384000 H     2 ALA     0.0603 ****
 14 HB3    30.589000   26.799000   22.956000 H     2 ALA     0.0603 ****
 15 C      29.766000   30.106000   23.752000 C     2 ALA     0.5973 ****
 16 O      30.171000   30.726000   22.769000 O     2 ALA    -0.5679 ****
 17 N      29.384000   30.712000   24.883000 N     3 ALA    -0.4157 ****
 18 H      28.916000   30.131000   25.561000 H     3 ALA     0.2719 ****
 19 CA     29.827000   32.027000   25.364000 C     3 ALA     0.0337 ****
 20 HA     29.038000   32.737000   25.113000 H     3 ALA     0.0823 ****
 21 CB     29.929000   31.975000   26.894000 C     3 ALA    -0.1825 ****
 22 HB1    30.703000   31.265000   27.189000 H     3 ALA     0.0603 ****
 23 HB2    30.189000   32.963000   27.278000 H     3 ALA     0.0603 ****
 24 HB3    28.974000   31.669000   27.322000 H     3 ALA     0.0603 ****
 25 C      31.132000   32.561000   24.729000 C     3 ALA     0.5973 ****
 26 O      32.144000   31.861000   24.687000 O     3 ALA    -0.5679 ****
 27 N      31.145000   33.840000   24.346000 N     4 SER    -0.4157 ****
 28 H      30.313000   34.400000   24.468000 H     4 SER     0.2719 ****
 29 CA     32.306000   34.525000   23.764000 C     4 SER    -0.0249 ****
 30 HA     33.200000   34.243000   24.321000 H     4 SER     0.0843 ****
 31 CB     32.487000   34.071000   22.309000 C     4 SER     0.2117 ****
 32 HB2    32.534000   32.981000   22.277000 H     4 SER     0.0352 ****
 33 HB3    31.634000   34.402000   21.714000 H     4 SER     0.0352 ****
 34 OG     33.683000   34.593000   21.759000 O     4 SER    -0.6546 ****
 35 HG     33.864000   34.120000   20.941000 H     4 SER     0.4275 ****
 36 C      32.141000   36.050000   23.865000 C     4 SER     0.5973 ****
 37 O      31.059000   36.533000   24.202000 O     4 SER    -0.5679 ****
 38 N      33.207000   36.808000   23.588000 N     5 NME    -0.4157 ****
 39 H      34.021000   36.326000   23.229000 H     5 NME     0.2719 ****
 40 CH3    33.229000   38.267000   23.659000 C     5 NME    -0.1490 ****
 41 HH31   32.979000   38.590000   24.672000 H     5 NME     0.0976 ****
 42 HH32   34.219000   38.642000   23.395000 H     5 NME     0.0976 ****
 43 HH33   32.491000   38.679000   22.969000 H     5 NME     0.0976 ****
@<TRIPOS>BOND
    1     5     6 1
    2     5     7 1
    3     2     3 1
    4     2     4 1
    5     2     5 1
    6     1     2 1
    7    15    16 1
    8    15    17 1
    9    11    12 1
   10    11    13 1
   11    11    14 1
   12     9    10 1
   13     9    11 1
   14     9    15 1
   15     7     8 1
   16     7     9 1
   17    25    26 1
   18    25    27 1
   19    21    22 1
   20    21    23 1
   21    21    24 1
   22    19    20 1
   23    19    21 1
   24    19    25 1
   25    17    18 1
   26    17    19 1
   27    36    37 1
   28    36    38 1
   29    34    35 1
   30    31    32 1
   31    31    33 1
   32    31    34 1
   33    29    30 1
   34    29    31 1
   35    29    36 1
   36    27    28 1
   37    27    29 1
   38    40    41 1
   39    40    42 1
   40    40    43 1
   41    38    39 1
   42    38    40 1
@<TRIPOS>SUBSTRUCTURE
      1  ACE              1 ****               0 ****  **** 
      2  ALA              7 ****               0 ****  **** 
      3  ALA             17 ****               0 ****  **** 
      4  SER             27 ****               0 ****  **** 
      5  NME             38 ****               0 ****  **** 
