@<TRIPOS>MOLECULE
default_name
   43    42     5     0     1 
SMALL
USER_CHARGES
@<TRIPOS>ATOM
  1 H1     26.787000   31.569000   21.415000 H     1 ACE     0.1123 ****
  2 CH3    27.458000   32.040000   22.130000 C     1 ACE    -0.3662 ****
  3 H2     26.963000   32.896000   22.586000 H     1 ACE     0.1123 ****
  4 H3     28.361000   32.372000   21.623000 H     1 ACE     0.1123 ****
  5 C      27.808000   31.044000   23.209000 C     1 ACE     0.5972 ****
  6 O      27.340000   31.164000   24.332000 O     1 ACE    -0.5679 ****
  7 N      28.641000   30.059000   22.874000 N     2 ALA    -0.4157 ****
  8 H      28.997000   30.051000   21.933000 H     2 ALA     0.2719 ****
  9 CA     28.942000   28.895000   23.723000 C     2 ALA     0.0337 ****
 10 HA     27.995000   28.507000   24.103000 H     2 ALA     0.0823 ****
 11 CB     29.563000   27.818000   22.822000 C     2 ALA    -0.1825 ****
 12 HB1    30.526000   28.159000   22.439000 H     2 ALA     0.0603 ****
 13 HB2    29.716000   26.903000   23.397000 H     2 ALA     0.0603 ****
 14 HB3    28.895000   27.596000   21.988000 H     2 ALA     0.0603 ****
 15 C      29.822000   29.166000   24.971000 C     2 ALA     0.5973 ****
 16 O      30.117000   28.229000   25.706000 O     2 ALA    -0.5679 ****
 17 N      30.229000   30.423000   25.194000 N     3 ALA    -0.4157 ****
 18 H      29.811000   31.109000   24.588000 H     3 ALA     0.2719 ****
 19 CA     31.063000   30.953000   26.294000 C     3 ALA     0.0337 ****
 20 HA     30.493000   30.964000   27.224000 H     3 ALA     0.0823 ****
 21 CB     32.332000   30.094000   26.470000 C     3 ALA    -0.1825 ****
 22 HB1    32.843000   29.969000   25.515000 H     3 ALA     0.0603 ****
 23 HB2    33.009000   30.577000   27.176000 H     3 ALA     0.0603 ****
 24 HB3    32.081000   29.116000   26.879000 H     3 ALA     0.0603 ****
 25 C      31.554000   32.389000   25.994000 C     3 ALA     0.5973 ****
 26 O      31.989000   33.100000   26.895000 O     3 ALA    -0.5679 ****
 27 N      31.445000   32.841000   24.740000 N     4 SER    -0.4157 ****
 28 H      31.121000   32.204000   24.029000 H     4 SER     0.2719 ****
 29 CA     31.676000   34.218000   24.291000 C     4 SER    -0.0249 ****
 30 HA     31.226000   34.906000   25.008000 H     4 SER     0.0843 ****
 31 CB     33.182000   34.507000   24.229000 C     4 SER     0.2117 ****
 32 HB2    33.629000   34.295000   25.201000 H     4 SER     0.0352 ****
 33 HB3    33.647000   33.866000   23.478000 H     4 SER     0.0352 ****
 34 OG     33.416000   35.865000   23.906000 O     4 SER    -0.6546 ****
 35 HG     34.344000   36.060000   24.075000 H     4 SER     0.4275 ****
 36 C      31.002000   34.429000   22.926000 C     4 SER     0.5973 ****
 37 O      30.593000   33.456000   22.287000 O     4 SER    -0.5679 ****
 38 N      30.869000   35.683000   22.484000 N     5 NME    -0.4157 ****
 39 H      31.316000   36.406000   23.033000 H     5 NME     0.2719 ****
 40 CH3    30.224000   36.057000   21.227000 C     5 NME    -0.1490 ****
 41 HH31   29.183000   35.730000   21.235000 H     5 NME     0.0976 ****
 42 HH32   30.260000   37.139000   21.094000 H     5 NME     0.0976 ****
 43 HH33   30.737000   35.575000   20.392000 H     5 NME     0.0976 ****
@<TRIPOS>BOND
    1     5     6 1
    2     5     7 1
    3     2     3 1
    4     2     4 1
    5     2     5 1
    6     1     2 1
    7    15    16 1
    8    15    17 1
    9    11    12 1
   10    11    13 1
   11    11    14 1
   12     9    10 1
   13     9    11 1
   14     9    15 1
   15     7     8 1
   16     7     9 1
   17    25    26 1
   18    25    27 1
   19    21    22 1
   20    21    23 1
   21    21    24 1
   22    19    20 1
   23    19    21 1
   24    19    25 1
   25    17    18 1
   26    17    19 1
   27    36    37 1
   28    36    38 1
   29    34    35 1
   30    31    32 1
   31    31    33 1
   32    31    34 1
   33    29    30 1
   34    29    31 1
   35    29    36 1
   36    27    28 1
   37    27    29 1
   38    40    41 1
   39    40    42 1
   40    40    43 1
   41    38    39 1
   42    38    40 1
@<TRIPOS>SUBSTRUCTURE
      1  ACE              1 ****               0 ****  **** 
      2  ALA              7 ****               0 ****  **** 
      3  ALA             17 ****               0 ****  **** 
      4  SER             27 ****               0 ****  **** 
      5  NME             38 ****               0 ****  **** 
