@<TRIPOS>MOLECULE
default_name
   43    42     5     0     1 
SMALL
USER_CHARGES
@<TRIPOS>ATOM
  1 H1     25.252000   28.232000   23.651000 H     1 ACE     0.1123 ****
  2 CH3    26.036000   28.347000   22.904000 C     1 ACE    -0.3662 ****
  3 H2     25.814000   29.206000   22.272000 H     1 ACE     0.1123 ****
  4 H3     26.098000   27.445000   22.299000 H     1 ACE     0.1123 ****
  5 C      27.353000   28.572000   23.608000 C     1 ACE     0.5972 ****
  6 O      27.403000   28.600000   24.831000 O     1 ACE    -0.5679 ****
  7 N      28.426000   28.731000   22.835000 N     2 ALA    -0.4157 ****
  8 H      28.306000   28.718000   21.836000 H     2 ALA     0.2719 ****
  9 CA     29.761000   29.019000   23.358000 C     2 ALA     0.0337 ****
 10 HA     29.949000   28.373000   24.218000 H     2 ALA     0.0823 ****
 11 CB     30.792000   28.668000   22.275000 C     2 ALA    -0.1825 ****
 12 HB1    30.626000   29.277000   21.385000 H     2 ALA     0.0603 ****
 13 HB2    31.797000   28.861000   22.652000 H     2 ALA     0.0603 ****
 14 HB3    30.710000   27.613000   22.012000 H     2 ALA     0.0603 ****
 15 C      29.872000   30.484000   23.833000 C     2 ALA     0.5973 ****
 16 O      30.146000   31.378000   23.035000 O     2 ALA    -0.5679 ****
 17 N      29.631000   30.716000   25.128000 N     3 ALA    -0.4157 ****
 18 H      29.329000   29.926000   25.679000 H     3 ALA     0.2719 ****
 19 CA     29.789000   31.983000   25.852000 C     3 ALA     0.0337 ****
 20 HA     28.974000   32.639000   25.544000 H     3 ALA     0.0823 ****
 21 CB     29.601000   31.697000   27.349000 C     3 ALA    -0.1825 ****
 22 HB1    30.381000   31.019000   27.701000 H     3 ALA     0.0603 ****
 23 HB2    29.666000   32.630000   27.910000 H     3 ALA     0.0603 ****
 24 HB3    28.624000   31.246000   27.524000 H     3 ALA     0.0603 ****
 25 C      31.108000   32.735000   25.549000 C     3 ALA     0.5973 ****
 26 O      32.122000   32.516000   26.210000 O     3 ALA    -0.5679 ****
 27 N      31.104000   33.600000   24.533000 N     4 SER    -0.4157 ****
 28 H      30.257000   33.695000   23.988000 H     4 SER     0.2719 ****
 29 CA     32.265000   34.365000   24.067000 C     4 SER    -0.0249 ****
 30 HA     32.870000   34.653000   24.927000 H     4 SER     0.0843 ****
 31 CB     33.120000   33.470000   23.161000 C     4 SER     0.2117 ****
 32 HB2    33.349000   32.543000   23.690000 H     4 SER     0.0352 ****
 33 HB3    32.559000   33.227000   22.257000 H     4 SER     0.0352 ****
 34 OG     34.335000   34.109000   22.813000 O     4 SER    -0.6546 ****
 35 HG     34.886000   33.470000   22.350000 H     4 SER     0.4275 ****
 36 C      31.828000   35.649000   23.343000 C     4 SER     0.5973 ****
 37 O      30.646000   35.826000   23.045000 O     4 SER    -0.5679 ****
 38 N      32.774000   36.555000   23.071000 N     5 NME    -0.4157 ****
 39 H      33.727000   36.283000   23.270000 H     5 NME     0.2719 ****
 40 CH3    32.531000   37.837000   22.414000 C     5 NME    -0.1490 ****
 41 HH31   31.822000   38.423000   23.003000 H     5 NME     0.0976 ****
 42 HH32   33.464000   38.392000   22.314000 H     5 NME     0.0976 ****
 43 HH33   32.104000   37.667000   21.424000 H     5 NME     0.0976 ****
@<TRIPOS>BOND
    1     5     6 1
    2     5     7 1
    3     2     3 1
    4     2     4 1
    5     2     5 1
    6     1     2 1
    7    15    16 1
    8    15    17 1
    9    11    12 1
   10    11    13 1
   11    11    14 1
   12     9    10 1
   13     9    11 1
   14     9    15 1
   15     7     8 1
   16     7     9 1
   17    25    26 1
   18    25    27 1
   19    21    22 1
   20    21    23 1
   21    21    24 1
   22    19    20 1
   23    19    21 1
   24    19    25 1
   25    17    18 1
   26    17    19 1
   27    36    37 1
   28    36    38 1
   29    34    35 1
   30    31    32 1
   31    31    33 1
   32    31    34 1
   33    29    30 1
   34    29    31 1
   35    29    36 1
   36    27    28 1
   37    27    29 1
   38    40    41 1
   39    40    42 1
   40    40    43 1
   41    38    39 1
   42    38    40 1
@<TRIPOS>SUBSTRUCTURE
      1  ACE              1 ****               0 ****  **** 
      2  ALA              7 ****               0 ****  **** 
      3  ALA             17 ****               0 ****  **** 
      4  SER             27 ****               0 ****  **** 
      5  NME             38 ****               0 ****  **** 
