@<TRIPOS>MOLECULE
default_name
   43    42     5     0     1 
SMALL
USER_CHARGES
@<TRIPOS>ATOM
  1 H1     28.920000   25.936000   23.580000 H     1 ACE     0.1123 ****
  2 CH3    28.354000   26.793000   23.216000 C     1 ACE    -0.3662 ****
  3 H2     27.381000   26.822000   23.704000 H     1 ACE     0.1123 ****
  4 H3     28.228000   26.717000   22.138000 H     1 ACE     0.1123 ****
  5 C      29.116000   28.056000   23.543000 C     1 ACE     0.5972 ****
  6 O      30.189000   27.993000   24.127000 O     1 ACE    -0.5679 ****
  7 N      28.555000   29.202000   23.165000 N     2 ALA    -0.4157 ****
  8 H      27.668000   29.174000   22.688000 H     2 ALA     0.2719 ****
  9 CA     29.142000   30.524000   23.381000 C     2 ALA     0.0337 ****
 10 HA     29.744000   30.501000   24.287000 H     2 ALA     0.0823 ****
 11 CB     30.075000   30.835000   22.202000 C     2 ALA    -0.1825 ****
 12 HB1    29.524000   30.765000   21.263000 H     2 ALA     0.0603 ****
 13 HB2    30.472000   31.844000   22.297000 H     2 ALA     0.0603 ****
 14 HB3    30.902000   30.124000   22.188000 H     2 ALA     0.0603 ****
 15 C      28.034000   31.594000   23.503000 C     2 ALA     0.5973 ****
 16 O      27.113000   31.574000   22.686000 O     2 ALA    -0.5679 ****
 17 N      28.095000   32.556000   24.444000 N     3 ALA    -0.4157 ****
 18 H      27.390000   33.281000   24.395000 H     3 ALA     0.2719 ****
 19 CA     28.881000   32.561000   25.689000 C     3 ALA     0.0337 ****
 20 HA     28.562000   33.464000   26.210000 H     3 ALA     0.0823 ****
 21 CB     28.452000   31.410000   26.617000 C     3 ALA    -0.1825 ****
 22 HB1    28.791000   30.448000   26.234000 H     3 ALA     0.0603 ****
 23 HB2    28.891000   31.557000   27.605000 H     3 ALA     0.0603 ****
 24 HB3    27.366000   31.395000   26.717000 H     3 ALA     0.0603 ****
 25 C      30.404000   32.774000   25.529000 C     3 ALA     0.5973 ****
 26 O      31.193000   32.267000   26.321000 O     3 ALA    -0.5679 ****
 27 N      30.824000   33.523000   24.506000 N     4 SER    -0.4157 ****
 28 H      30.136000   33.937000   23.891000 H     4 SER     0.2719 ****
 29 CA     32.220000   33.917000   24.267000 C     4 SER    -0.0249 ****
 30 HA     32.671000   34.207000   25.216000 H     4 SER     0.0843 ****
 31 CB     33.020000   32.732000   23.706000 C     4 SER     0.2117 ****
 32 HB2    32.880000   31.864000   24.351000 H     4 SER     0.0352 ****
 33 HB3    32.665000   32.489000   22.704000 H     4 SER     0.0352 ****
 34 OG     34.400000   33.042000   23.654000 O     4 SER    -0.6546 ****
 35 HG     34.887000   32.221000   23.528000 H     4 SER     0.4275 ****
 36 C      32.276000   35.130000   23.324000 C     4 SER     0.5973 ****
 37 O      31.254000   35.506000   22.748000 O     4 SER    -0.5679 ****
 38 N      33.451000   35.749000   23.174000 N     5 NME    -0.4157 ****
 39 H      34.251000   35.312000   23.615000 H     5 NME     0.2719 ****
 40 CH3    33.669000   36.926000   22.336000 C     5 NME    -0.1490 ****
 41 HH31   33.030000   37.743000   22.676000 H     5 NME     0.0976 ****
 42 HH32   34.713000   37.238000   22.390000 H     5 NME     0.0976 ****
 43 HH33   33.415000   36.692000   21.301000 H     5 NME     0.0976 ****
@<TRIPOS>BOND
    1     5     6 1
    2     5     7 1
    3     2     3 1
    4     2     4 1
    5     2     5 1
    6     1     2 1
    7    15    16 1
    8    15    17 1
    9    11    12 1
   10    11    13 1
   11    11    14 1
   12     9    10 1
   13     9    11 1
   14     9    15 1
   15     7     8 1
   16     7     9 1
   17    25    26 1
   18    25    27 1
   19    21    22 1
   20    21    23 1
   21    21    24 1
   22    19    20 1
   23    19    21 1
   24    19    25 1
   25    17    18 1
   26    17    19 1
   27    36    37 1
   28    36    38 1
   29    34    35 1
   30    31    32 1
   31    31    33 1
   32    31    34 1
   33    29    30 1
   34    29    31 1
   35    29    36 1
   36    27    28 1
   37    27    29 1
   38    40    41 1
   39    40    42 1
   40    40    43 1
   41    38    39 1
   42    38    40 1
@<TRIPOS>SUBSTRUCTURE
      1  ACE              1 ****               0 ****  **** 
      2  ALA              7 ****               0 ****  **** 
      3  ALA             17 ****               0 ****  **** 
      4  SER             27 ****               0 ****  **** 
      5  NME             38 ****               0 ****  **** 
