@<TRIPOS>MOLECULE
default_name
   43    42     5     0     1 
SMALL
USER_CHARGES
@<TRIPOS>ATOM
  1 H1     25.854000   25.946000   22.635000 H     1 ACE     0.1123 ****
  2 CH3    26.081000   27.007000   22.541000 C     1 ACE    -0.3662 ****
  3 H2     25.304000   27.591000   23.031000 H     1 ACE     0.1123 ****
  4 H3     26.141000   27.276000   21.489000 H     1 ACE     0.1123 ****
  5 C      27.409000   27.284000   23.205000 C     1 ACE     0.5972 ****
  6 O      28.037000   26.373000   23.729000 O     1 ACE    -0.5679 ****
  7 N      27.832000   28.546000   23.185000 N     2 ALA    -0.4157 ****
  8 H      27.243000   29.248000   22.765000 H     2 ALA     0.2719 ****
  9 CA     29.076000   29.016000   23.796000 C     2 ALA     0.0337 ****
 10 HA     29.274000   28.426000   24.692000 H     2 ALA     0.0823 ****
 11 CB     30.230000   28.801000   22.805000 C     2 ALA    -0.1825 ****
 12 HB1    30.055000   29.379000   21.897000 H     2 ALA     0.0603 ****
 13 HB2    31.172000   29.116000   23.255000 H     2 ALA     0.0603 ****
 14 HB3    30.303000   27.743000   22.549000 H     2 ALA     0.0603 ****
 15 C      28.962000   30.494000   24.214000 C     2 ALA     0.5973 ****
 16 O      28.105000   31.221000   23.713000 O     2 ALA    -0.5679 ****
 17 N      29.846000   30.940000   25.110000 N     3 ALA    -0.4157 ****
 18 H      30.536000   30.297000   25.465000 H     3 ALA     0.2719 ****
 19 CA     29.886000   32.305000   25.637000 C     3 ALA     0.0337 ****
 20 HA     29.130000   32.914000   25.138000 H     3 ALA     0.0823 ****
 21 CB     29.532000   32.265000   27.130000 C     3 ALA    -0.1825 ****
 22 HB1    30.257000   31.657000   27.673000 H     3 ALA     0.0603 ****
 23 HB2    29.545000   33.278000   27.535000 H     3 ALA     0.0603 ****
 24 HB3    28.535000   31.844000   27.263000 H     3 ALA     0.0603 ****
 25 C      31.259000   32.943000   25.363000 C     3 ALA     0.5973 ****
 26 O      32.250000   32.594000   25.999000 O     3 ALA    -0.5679 ****
 27 N      31.327000   33.838000   24.374000 N     4 SER    -0.4157 ****
 28 H      30.478000   34.091000   23.884000 H     4 SER     0.2719 ****
 29 CA     32.534000   34.589000   24.000000 C     4 SER    -0.0249 ****
 30 HA     33.066000   34.875000   24.908000 H     4 SER     0.0843 ****
 31 CB     33.464000   33.699000   23.166000 C     4 SER     0.2117 ****
 32 HB2    33.655000   32.771000   23.708000 H     4 SER     0.0352 ****
 33 HB3    32.985000   33.460000   22.215000 H     4 SER     0.0352 ****
 34 OG     34.700000   34.347000   22.927000 O     4 SER    -0.6546 ****
 35 HG     35.305000   33.712000   22.531000 H     4 SER     0.4275 ****
 36 C      32.159000   35.874000   23.245000 C     4 SER     0.5973 ****
 37 O      31.009000   36.034000   22.836000 O     4 SER    -0.5679 ****
 38 N      33.115000   36.793000   23.069000 N     5 NME    -0.4157 ****
 39 H      34.049000   36.535000   23.358000 H     5 NME     0.2719 ****
 40 CH3    32.918000   38.076000   22.398000 C     5 NME    -0.1490 ****
 41 HH31   32.147000   38.649000   22.917000 H     5 NME     0.0976 ****
 42 HH32   33.848000   38.645000   22.392000 H     5 NME     0.0976 ****
 43 HH33   32.592000   37.906000   21.370000 H     5 NME     0.0976 ****
@<TRIPOS>BOND
    1     5     6 1
    2     5     7 1
    3     2     3 1
    4     2     4 1
    5     2     5 1
    6     1     2 1
    7    15    16 1
    8    15    17 1
    9    11    12 1
   10    11    13 1
   11    11    14 1
   12     9    10 1
   13     9    11 1
   14     9    15 1
   15     7     8 1
   16     7     9 1
   17    25    26 1
   18    25    27 1
   19    21    22 1
   20    21    23 1
   21    21    24 1
   22    19    20 1
   23    19    21 1
   24    19    25 1
   25    17    18 1
   26    17    19 1
   27    36    37 1
   28    36    38 1
   29    34    35 1
   30    31    32 1
   31    31    33 1
   32    31    34 1
   33    29    30 1
   34    29    31 1
   35    29    36 1
   36    27    28 1
   37    27    29 1
   38    40    41 1
   39    40    42 1
   40    40    43 1
   41    38    39 1
   42    38    40 1
@<TRIPOS>SUBSTRUCTURE
      1  ACE              1 ****               0 ****  **** 
      2  ALA              7 ****               0 ****  **** 
      3  ALA             17 ****               0 ****  **** 
      4  SER             27 ****               0 ****  **** 
      5  NME             38 ****               0 ****  **** 
