@<TRIPOS>MOLECULE
default_name
   43    42     5     0     1 
SMALL
USER_CHARGES
@<TRIPOS>ATOM
  1 H1     25.565000   28.461000   25.031000 H     1 ACE     0.1123 ****
  2 CH3    25.802000   29.146000   24.218000 C     1 ACE    -0.3662 ****
  3 H2     25.462000   30.148000   24.476000 H     1 ACE     0.1123 ****
  4 H3     25.311000   28.809000   23.307000 H     1 ACE     0.1123 ****
  5 C      27.297000   29.156000   24.007000 C     1 ACE     0.5972 ****
  6 O      28.023000   28.464000   24.705000 O     1 ACE    -0.5679 ****
  7 N      27.763000   29.966000   23.058000 N     2 ALA    -0.4157 ****
  8 H      27.096000   30.505000   22.530000 H     2 ALA     0.2719 ****
  9 CA     29.171000   30.039000   22.642000 C     2 ALA     0.0337 ****
 10 HA     29.535000   29.017000   22.519000 H     2 ALA     0.0823 ****
 11 CB     29.212000   30.724000   21.268000 C     2 ALA    -0.1825 ****
 12 HB1    28.871000   31.756000   21.354000 H     2 ALA     0.0603 ****
 13 HB2    30.233000   30.718000   20.883000 H     2 ALA     0.0603 ****
 14 HB3    28.574000   30.187000   20.564000 H     2 ALA     0.0603 ****
 15 C      30.135000   30.719000   23.650000 C     2 ALA     0.5973 ****
 16 O      31.295000   30.948000   23.317000 O     2 ALA    -0.5679 ****
 17 N      29.663000   31.085000   24.848000 N     3 ALA    -0.4157 ****
 18 H      28.711000   30.831000   25.051000 H     3 ALA     0.2719 ****
 19 CA     30.409000   31.731000   25.935000 C     3 ALA     0.0337 ****
 20 HA     29.679000   31.954000   26.714000 H     3 ALA     0.0823 ****
 21 CB     31.402000   30.742000   26.568000 C     3 ALA    -0.1825 ****
 22 HB1    32.159000   30.440000   25.844000 H     3 ALA     0.0603 ****
 23 HB2    31.890000   31.209000   27.425000 H     3 ALA     0.0603 ****
 24 HB3    30.867000   29.854000   26.909000 H     3 ALA     0.0603 ****
 25 C      31.002000   33.105000   25.557000 C     3 ALA     0.5973 ****
 26 O      30.328000   34.118000   25.717000 O     3 ALA    -0.5679 ****
 27 N      32.225000   33.150000   25.017000 N     4 SER    -0.4157 ****
 28 H      32.702000   32.272000   24.872000 H     4 SER     0.2719 ****
 29 CA     32.897000   34.385000   24.573000 C     4 SER    -0.0249 ****
 30 HA     32.656000   35.176000   25.285000 H     4 SER     0.0843 ****
 31 CB     34.416000   34.180000   24.608000 C     4 SER     0.2117 ****
 32 HB2    34.707000   33.772000   25.577000 H     4 SER     0.0352 ****
 33 HB3    34.708000   33.477000   23.826000 H     4 SER     0.0352 ****
 34 OG     35.086000   35.406000   24.413000 O     4 SER    -0.6546 ****
 35 HG     34.674000   35.845000   23.650000 H     4 SER     0.4275 ****
 36 C      32.453000   34.888000   23.183000 C     4 SER     0.5973 ****
 37 O      33.007000   35.868000   22.684000 O     4 SER    -0.5679 ****
 38 N      31.498000   34.213000   22.531000 N     5 NME    -0.4157 ****
 39 H      31.108000   33.407000   22.995000 H     5 NME     0.2719 ****
 40 CH3    30.996000   34.561000   21.204000 C     5 NME    -0.1490 ****
 41 HH31   31.833000   34.676000   20.512000 H     5 NME     0.0976 ****
 42 HH32   30.332000   33.779000   20.835000 H     5 NME     0.0976 ****
 43 HH33   30.453000   35.506000   21.254000 H     5 NME     0.0976 ****
@<TRIPOS>BOND
    1     5     6 1
    2     5     7 1
    3     2     3 1
    4     2     4 1
    5     2     5 1
    6     1     2 1
    7    15    16 1
    8    15    17 1
    9    11    12 1
   10    11    13 1
   11    11    14 1
   12     9    10 1
   13     9    11 1
   14     9    15 1
   15     7     8 1
   16     7     9 1
   17    25    26 1
   18    25    27 1
   19    21    22 1
   20    21    23 1
   21    21    24 1
   22    19    20 1
   23    19    21 1
   24    19    25 1
   25    17    18 1
   26    17    19 1
   27    36    37 1
   28    36    38 1
   29    34    35 1
   30    31    32 1
   31    31    33 1
   32    31    34 1
   33    29    30 1
   34    29    31 1
   35    29    36 1
   36    27    28 1
   37    27    29 1
   38    40    41 1
   39    40    42 1
   40    40    43 1
   41    38    39 1
   42    38    40 1
@<TRIPOS>SUBSTRUCTURE
      1  ACE              1 ****               0 ****  **** 
      2  ALA              7 ****               0 ****  **** 
      3  ALA             17 ****               0 ****  **** 
      4  SER             27 ****               0 ****  **** 
      5  NME             38 ****               0 ****  **** 
