@<TRIPOS>MOLECULE
default_name
   43    42     5     0     1 
SMALL
USER_CHARGES
@<TRIPOS>ATOM
  1 H1     25.170000   28.359000   24.790000 H     1 ACE     0.1123 ****
  2 CH3    25.811000   27.803000   24.110000 C     1 ACE    -0.3662 ****
  3 H2     25.374000   27.771000   23.113000 H     1 ACE     0.1123 ****
  4 H3     25.950000   26.792000   24.486000 H     1 ACE     0.1123 ****
  5 C      27.128000   28.531000   24.011000 C     1 ACE     0.5972 ****
  6 O      27.157000   29.652000   23.518000 O     1 ACE    -0.5679 ****
  7 N      28.208000   27.881000   24.446000 N     2 ALA    -0.4157 ****
  8 H      28.082000   26.950000   24.804000 H     2 ALA     0.2719 ****
  9 CA     29.563000   28.438000   24.460000 C     2 ALA     0.0337 ****
 10 HA     30.160000   27.834000   25.140000 H     2 ALA     0.0823 ****
 11 CB     30.169000   28.292000   23.048000 C     2 ALA    -0.1825 ****
 12 HB1    29.656000   28.951000   22.345000 H     2 ALA     0.0603 ****
 13 HB2    31.226000   28.558000   23.070000 H     2 ALA     0.0603 ****
 14 HB3    30.075000   27.260000   22.710000 H     2 ALA     0.0603 ****
 15 C      29.606000   29.877000   25.027000 C     2 ALA     0.5973 ****
 16 O      28.976000   30.164000   26.043000 O     2 ALA    -0.5679 ****
 17 N      30.367000   30.751000   24.364000 N     3 ALA    -0.4157 ****
 18 H      30.917000   30.383000   23.604000 H     3 ALA     0.2719 ****
 19 CA     30.379000   32.201000   24.484000 C     3 ALA     0.0337 ****
 20 HA     29.386000   32.589000   24.241000 H     3 ALA     0.0823 ****
 21 CB     30.772000   32.633000   25.906000 C     3 ALA    -0.1825 ****
 22 HB1    31.696000   32.137000   26.209000 H     3 ALA     0.0603 ****
 23 HB2    30.929000   33.710000   25.926000 H     3 ALA     0.0603 ****
 24 HB3    29.975000   32.395000   26.612000 H     3 ALA     0.0603 ****
 25 C      31.432000   32.757000   23.507000 C     3 ALA     0.5973 ****
 26 O      32.553000   32.254000   23.431000 O     3 ALA    -0.5679 ****
 27 N      31.104000   33.843000   22.812000 N     4 SER    -0.4157 ****
 28 H      30.165000   34.196000   22.917000 H     4 SER     0.2719 ****
 29 CA     32.100000   34.745000   22.220000 C     4 SER    -0.0249 ****
 30 HA     32.997000   34.185000   21.948000 H     4 SER     0.0843 ****
 31 CB     31.533000   35.355000   20.931000 C     4 SER     0.2117 ****
 32 HB2    31.584000   34.602000   20.145000 H     4 SER     0.0352 ****
 33 HB3    30.491000   35.638000   21.082000 H     4 SER     0.0352 ****
 34 OG     32.269000   36.484000   20.520000 O     4 SER    -0.6546 ****
 35 HG     32.148000   37.162000   21.203000 H     4 SER     0.4275 ****
 36 C      32.494000   35.772000   23.289000 C     4 SER     0.5973 ****
 37 O      32.015000   36.906000   23.276000 O     4 SER    -0.5679 ****
 38 N      33.291000   35.329000   24.271000 N     5 NME    -0.4157 ****
 39 H      33.636000   34.380000   24.191000 H     5 NME     0.2719 ****
 40 CH3    33.607000   36.075000   25.490000 C     5 NME    -0.1490 ****
 41 HH31   32.955000   35.751000   26.303000 H     5 NME     0.0976 ****
 42 HH32   34.645000   35.905000   25.780000 H     5 NME     0.0976 ****
 43 HH33   33.455000   37.145000   25.332000 H     5 NME     0.0976 ****
@<TRIPOS>BOND
    1     5     6 1
    2     5     7 1
    3     2     3 1
    4     2     4 1
    5     2     5 1
    6     1     2 1
    7    15    16 1
    8    15    17 1
    9    11    12 1
   10    11    13 1
   11    11    14 1
   12     9    10 1
   13     9    11 1
   14     9    15 1
   15     7     8 1
   16     7     9 1
   17    25    26 1
   18    25    27 1
   19    21    22 1
   20    21    23 1
   21    21    24 1
   22    19    20 1
   23    19    21 1
   24    19    25 1
   25    17    18 1
   26    17    19 1
   27    36    37 1
   28    36    38 1
   29    34    35 1
   30    31    32 1
   31    31    33 1
   32    31    34 1
   33    29    30 1
   34    29    31 1
   35    29    36 1
   36    27    28 1
   37    27    29 1
   38    40    41 1
   39    40    42 1
   40    40    43 1
   41    38    39 1
   42    38    40 1
@<TRIPOS>SUBSTRUCTURE
      1  ACE              1 ****               0 ****  **** 
      2  ALA              7 ****               0 ****  **** 
      3  ALA             17 ****               0 ****  **** 
      4  SER             27 ****               0 ****  **** 
      5  NME             38 ****               0 ****  **** 
