@<TRIPOS>MOLECULE
default_name
   43    42     5     0     1 
SMALL
USER_CHARGES
@<TRIPOS>ATOM
  1 H1     25.544000   25.925000   22.984000 H     1 ACE     0.1123 ****
  2 CH3    25.697000   27.003000   22.989000 C     1 ACE    -0.3662 ****
  3 H2     25.087000   27.457000   23.768000 H     1 ACE     0.1123 ****
  4 H3     25.428000   27.416000   22.019000 H     1 ACE     0.1123 ****
  5 C      27.155000   27.289000   23.266000 C     1 ACE     0.5972 ****
  6 O      27.940000   26.366000   23.439000 O     1 ACE    -0.5679 ****
  7 N      27.510000   28.570000   23.313000 N     2 ALA    -0.4157 ****
  8 H      26.800000   29.278000   23.198000 H     2 ALA     0.2719 ****
  9 CA     28.865000   29.050000   23.585000 C     2 ALA     0.0337 ****
 10 HA     29.358000   28.351000   24.263000 H     2 ALA     0.0823 ****
 11 CB     29.653000   29.087000   22.267000 C     2 ALA    -0.1825 ****
 12 HB1    29.177000   29.779000   21.570000 H     2 ALA     0.0603 ****
 13 HB2    30.675000   29.419000   22.452000 H     2 ALA     0.0603 ****
 14 HB3    29.680000   28.091000   21.823000 H     2 ALA     0.0603 ****
 15 C      28.839000   30.433000   24.262000 C     2 ALA     0.5973 ****
 16 O      27.833000   31.139000   24.198000 O     2 ALA    -0.5679 ****
 17 N      29.948000   30.805000   24.909000 N     3 ALA    -0.4157 ****
 18 H      30.727000   30.170000   24.900000 H     3 ALA     0.2719 ****
 19 CA     30.186000   32.159000   25.418000 C     3 ALA     0.0337 ****
 20 HA     29.251000   32.723000   25.412000 H     3 ALA     0.0823 ****
 21 CB     30.634000   32.030000   26.885000 C     3 ALA    -0.1825 ****
 22 HB1    31.591000   31.510000   26.946000 H     3 ALA     0.0603 ****
 23 HB2    30.721000   33.018000   27.337000 H     3 ALA     0.0603 ****
 24 HB3    29.887000   31.466000   27.445000 H     3 ALA     0.0603 ****
 25 C      31.164000   32.930000   24.498000 C     3 ALA     0.5973 ****
 26 O      31.063000   32.834000   23.277000 O     3 ALA    -0.5679 ****
 27 N      32.159000   33.625000   25.070000 N     4 SER    -0.4157 ****
 28 H      32.177000   33.642000   26.076000 H     4 SER     0.2719 ****
 29 CA     33.000000   34.619000   24.375000 C     4 SER    -0.0249 ****
 30 HA     33.701000   35.017000   25.109000 H     4 SER     0.0843 ****
 31 CB     33.855000   33.936000   23.291000 C     4 SER     0.2117 ****
 32 HB2    34.269000   33.011000   23.694000 H     4 SER     0.0352 ****
 33 HB3    33.236000   33.697000   22.425000 H     4 SER     0.0352 ****
 34 OG     34.924000   34.772000   22.883000 O     4 SER    -0.6546 ****
 35 HG     35.460000   34.286000   22.247000 H     4 SER     0.4275 ****
 36 C      32.188000   35.830000   23.868000 C     4 SER     0.5973 ****
 37 O      31.042000   36.025000   24.271000 O     4 SER    -0.5679 ****
 38 N      32.798000   36.690000   23.045000 N     5 NME    -0.4157 ****
 39 H      33.745000   36.457000   22.769000 H     5 NME     0.2719 ****
 40 CH3    32.181000   37.895000   22.495000 C     5 NME    -0.1490 ****
 41 HH31   31.883000   38.559000   23.309000 H     5 NME     0.0976 ****
 42 HH32   32.883000   38.415000   21.842000 H     5 NME     0.0976 ****
 43 HH33   31.290000   37.623000   21.925000 H     5 NME     0.0976 ****
@<TRIPOS>BOND
    1     5     6 1
    2     5     7 1
    3     2     3 1
    4     2     4 1
    5     2     5 1
    6     1     2 1
    7    15    16 1
    8    15    17 1
    9    11    12 1
   10    11    13 1
   11    11    14 1
   12     9    10 1
   13     9    11 1
   14     9    15 1
   15     7     8 1
   16     7     9 1
   17    25    26 1
   18    25    27 1
   19    21    22 1
   20    21    23 1
   21    21    24 1
   22    19    20 1
   23    19    21 1
   24    19    25 1
   25    17    18 1
   26    17    19 1
   27    36    37 1
   28    36    38 1
   29    34    35 1
   30    31    32 1
   31    31    33 1
   32    31    34 1
   33    29    30 1
   34    29    31 1
   35    29    36 1
   36    27    28 1
   37    27    29 1
   38    40    41 1
   39    40    42 1
   40    40    43 1
   41    38    39 1
   42    38    40 1
@<TRIPOS>SUBSTRUCTURE
      1  ACE              1 ****               0 ****  **** 
      2  ALA              7 ****               0 ****  **** 
      3  ALA             17 ****               0 ****  **** 
      4  SER             27 ****               0 ****  **** 
      5  NME             38 ****               0 ****  **** 
