@<TRIPOS>MOLECULE
default_name
   43    42     5     0     1 
SMALL
USER_CHARGES
@<TRIPOS>ATOM
  1 H1     25.256000   28.863000   24.825000 H     1 ACE     0.1123 ****
  2 CH3    25.817000   29.103000   23.922000 C     1 ACE    -0.3662 ****
  3 H2     25.659000   30.148000   23.662000 H     1 ACE     0.1123 ****
  4 H3     25.484000   28.463000   23.108000 H     1 ACE     0.1123 ****
  5 C      27.286000   28.862000   24.180000 C     1 ACE     0.5972 ****
  6 O      27.660000   28.458000   25.271000 O     1 ACE    -0.5679 ****
  7 N      28.119000   29.133000   23.178000 N     2 ALA    -0.4157 ****
  8 H      27.726000   29.474000   22.316000 H     2 ALA     0.2719 ****
  9 CA     29.570000   28.901000   23.205000 C     2 ALA     0.0337 ****
 10 HA     29.746000   27.956000   23.720000 H     2 ALA     0.0823 ****
 11 CB     30.041000   28.736000   21.752000 C     2 ALA    -0.1825 ****
 12 HB1    29.921000   29.676000   21.211000 H     2 ALA     0.0603 ****
 13 HB2    31.095000   28.453000   21.737000 H     2 ALA     0.0603 ****
 14 HB3    29.465000   27.953000   21.258000 H     2 ALA     0.0603 ****
 15 C      30.395000   29.968000   23.972000 C     2 ALA     0.5973 ****
 16 O      31.607000   30.060000   23.780000 O     2 ALA    -0.5679 ****
 17 N      29.759000   30.794000   24.814000 N     3 ALA    -0.4157 ****
 18 H      28.773000   30.650000   24.952000 H     3 ALA     0.2719 ****
 19 CA     30.376000   31.953000   25.466000 C     3 ALA     0.0337 ****
 20 HA     29.572000   32.527000   25.927000 H     3 ALA     0.0823 ****
 21 CB     31.286000   31.474000   26.613000 C     3 ALA    -0.1825 ****
 22 HB1    32.148000   30.934000   26.216000 H     3 ALA     0.0603 ****
 23 HB2    31.631000   32.325000   27.200000 H     3 ALA     0.0603 ****
 24 HB3    30.727000   30.806000   27.269000 H     3 ALA     0.0603 ****
 25 C      31.025000   32.904000   24.431000 C     3 ALA     0.5973 ****
 26 O      30.398000   33.224000   23.425000 O     3 ALA    -0.5679 ****
 27 N      32.237000   33.406000   24.697000 N     4 SER    -0.4157 ****
 28 H      32.692000   33.067000   25.530000 H     4 SER     0.2719 ****
 29 CA     33.051000   34.236000   23.785000 C     4 SER    -0.0249 ****
 30 HA     33.951000   34.499000   24.340000 H     4 SER     0.0843 ****
 31 CB     33.524000   33.390000   22.591000 C     4 SER     0.2117 ****
 32 HB2    33.895000   32.428000   22.947000 H     4 SER     0.0352 ****
 33 HB3    32.690000   33.217000   21.909000 H     4 SER     0.0352 ****
 34 OG     34.565000   34.057000   21.910000 O     4 SER    -0.6546 ****
 35 HG     34.239000   34.947000   21.695000 H     4 SER     0.4275 ****
 36 C      32.451000   35.587000   23.333000 C     4 SER     0.5973 ****
 37 O      33.030000   36.253000   22.473000 O     4 SER    -0.5679 ****
 38 N      31.324000   36.023000   23.909000 N     5 NME    -0.4157 ****
 39 H      30.864000   35.400000   24.552000 H     5 NME     0.2719 ****
 40 CH3    30.661000   37.282000   23.576000 C     5 NME    -0.1490 ****
 41 HH31   29.791000   37.433000   24.215000 H     5 NME     0.0976 ****
 42 HH32   31.357000   38.113000   23.711000 H     5 NME     0.0976 ****
 43 HH33   30.342000   37.261000   22.532000 H     5 NME     0.0976 ****
@<TRIPOS>BOND
    1     5     6 1
    2     5     7 1
    3     2     3 1
    4     2     4 1
    5     2     5 1
    6     1     2 1
    7    15    16 1
    8    15    17 1
    9    11    12 1
   10    11    13 1
   11    11    14 1
   12     9    10 1
   13     9    11 1
   14     9    15 1
   15     7     8 1
   16     7     9 1
   17    25    26 1
   18    25    27 1
   19    21    22 1
   20    21    23 1
   21    21    24 1
   22    19    20 1
   23    19    21 1
   24    19    25 1
   25    17    18 1
   26    17    19 1
   27    36    37 1
   28    36    38 1
   29    34    35 1
   30    31    32 1
   31    31    33 1
   32    31    34 1
   33    29    30 1
   34    29    31 1
   35    29    36 1
   36    27    28 1
   37    27    29 1
   38    40    41 1
   39    40    42 1
   40    40    43 1
   41    38    39 1
   42    38    40 1
@<TRIPOS>SUBSTRUCTURE
      1  ACE              1 ****               0 ****  **** 
      2  ALA              7 ****               0 ****  **** 
      3  ALA             17 ****               0 ****  **** 
      4  SER             27 ****               0 ****  **** 
      5  NME             38 ****               0 ****  **** 
