@<TRIPOS>MOLECULE
default_name
   43    42     5     0     1 
SMALL
USER_CHARGES
@<TRIPOS>ATOM
  1 H1     28.139000   28.332000   20.584000 H     1 ACE     0.1123 ****
  2 CH3    28.086000   29.301000   21.075000 C     1 ACE    -0.3662 ****
  3 H2     27.223000   29.854000   20.707000 H     1 ACE     0.1123 ****
  4 H3     28.993000   29.871000   20.879000 H     1 ACE     0.1123 ****
  5 C      27.943000   29.104000   22.565000 C     1 ACE     0.5972 ****
  6 O      26.984000   29.583000   23.160000 O     1 ACE    -0.5679 ****
  7 N      28.901000   28.401000   23.166000 N     2 ALA    -0.4157 ****
  8 H      29.663000   28.068000   22.600000 H     2 ALA     0.2719 ****
  9 CA     29.021000   28.223000   24.615000 C     2 ALA     0.0337 ****
 10 HA     28.028000   28.274000   25.066000 H     2 ALA     0.0823 ****
 11 CB     29.583000   26.819000   24.883000 C     2 ALA    -0.1825 ****
 12 HB1    30.574000   26.719000   24.437000 H     2 ALA     0.0603 ****
 13 HB2    29.664000   26.658000   25.959000 H     2 ALA     0.0603 ****
 14 HB3    28.918000   26.065000   24.461000 H     2 ALA     0.0603 ****
 15 C      29.869000   29.359000   25.230000 C     2 ALA     0.5973 ****
 16 O      31.025000   29.147000   25.587000 O     2 ALA    -0.5679 ****
 17 N      29.291000   30.567000   25.272000 N     3 ALA    -0.4157 ****
 18 H      28.343000   30.615000   24.937000 H     3 ALA     0.2719 ****
 19 CA     29.934000   31.861000   25.543000 C     3 ALA     0.0337 ****
 20 HA     29.118000   32.520000   25.841000 H     3 ALA     0.0823 ****
 21 CB     30.876000   31.835000   26.760000 C     3 ALA    -0.1825 ****
 22 HB1    31.818000   31.351000   26.499000 H     3 ALA     0.0603 ****
 23 HB2    31.091000   32.853000   27.086000 H     3 ALA     0.0603 ****
 24 HB3    30.408000   31.294000   27.583000 H     3 ALA     0.0603 ****
 25 C      30.503000   32.517000   24.265000 C     3 ALA     0.5973 ****
 26 O      30.503000   31.925000   23.186000 O     3 ALA    -0.5679 ****
 27 N      30.956000   33.768000   24.379000 N     4 SER    -0.4157 ****
 28 H      30.964000   34.200000   25.293000 H     4 SER     0.2719 ****
 29 CA     31.606000   34.533000   23.306000 C     4 SER    -0.0249 ****
 30 HA     32.279000   33.871000   22.760000 H     4 SER     0.0843 ****
 31 CB     30.552000   35.058000   22.323000 C     4 SER     0.2117 ****
 32 HB2    29.942000   34.224000   21.970000 H     4 SER     0.0352 ****
 33 HB3    29.907000   35.777000   22.830000 H     4 SER     0.0352 ****
 34 OG     31.168000   35.674000   21.207000 O     4 SER    -0.6546 ****
 35 HG     30.489000   35.861000   20.551000 H     4 SER     0.4275 ****
 36 C      32.441000   35.680000   23.899000 C     4 SER     0.5973 ****
 37 O      32.293000   36.001000   25.078000 O     4 SER    -0.5679 ****
 38 N      33.319000   36.289000   23.095000 N     5 NME    -0.4157 ****
 39 H      33.305000   36.018000   22.121000 H     5 NME     0.2719 ****
 40 CH3    34.205000   37.375000   23.507000 C     5 NME    -0.1490 ****
 41 HH31   34.844000   37.037000   24.326000 H     5 NME     0.0976 ****
 42 HH32   34.828000   37.691000   22.670000 H     5 NME     0.0976 ****
 43 HH33   33.611000   38.222000   23.855000 H     5 NME     0.0976 ****
@<TRIPOS>BOND
    1     5     6 1
    2     5     7 1
    3     2     3 1
    4     2     4 1
    5     2     5 1
    6     1     2 1
    7    15    16 1
    8    15    17 1
    9    11    12 1
   10    11    13 1
   11    11    14 1
   12     9    10 1
   13     9    11 1
   14     9    15 1
   15     7     8 1
   16     7     9 1
   17    25    26 1
   18    25    27 1
   19    21    22 1
   20    21    23 1
   21    21    24 1
   22    19    20 1
   23    19    21 1
   24    19    25 1
   25    17    18 1
   26    17    19 1
   27    36    37 1
   28    36    38 1
   29    34    35 1
   30    31    32 1
   31    31    33 1
   32    31    34 1
   33    29    30 1
   34    29    31 1
   35    29    36 1
   36    27    28 1
   37    27    29 1
   38    40    41 1
   39    40    42 1
   40    40    43 1
   41    38    39 1
   42    38    40 1
@<TRIPOS>SUBSTRUCTURE
      1  ACE              1 ****               0 ****  **** 
      2  ALA              7 ****               0 ****  **** 
      3  ALA             17 ****               0 ****  **** 
      4  SER             27 ****               0 ****  **** 
      5  NME             38 ****               0 ****  **** 
