@<TRIPOS>MOLECULE
default_name
   44    43     5     0     1 
SMALL
USER_CHARGES
@<TRIPOS>ATOM
  1 H1     26.138000   26.161000   22.238000 H     1 ACE     0.1123 ****
  2 CH3    26.446000   27.204000   22.170000 C     1 ACE    -0.3662 ****
  3 H2     25.615000   27.847000   22.452000 H     1 ACE     0.1123 ****
  4 H3     26.760000   27.427000   21.152000 H     1 ACE     0.1123 ****
  5 C      27.601000   27.436000   23.115000 C     1 ACE     0.5972 ****
  6 O      28.038000   26.516000   23.792000 O     1 ACE    -0.5679 ****
  7 N      28.102000   28.669000   23.154000 N     2 SER    -0.4157 ****
  8 H      27.675000   29.383000   22.580000 H     2 SER     0.2719 ****
  9 CA     29.167000   29.111000   24.064000 C     2 SER    -0.0249 ****
 10 HA     28.991000   28.674000   25.048000 H     2 SER     0.0843 ****
 11 CB     30.527000   28.610000   23.559000 C     2 SER     0.2117 ****
 12 HB2    30.496000   27.524000   23.464000 H     2 SER     0.0352 ****
 13 HB3    30.736000   29.045000   22.580000 H     2 SER     0.0352 ****
 14 OG     31.557000   28.962000   24.463000 O     2 SER    -0.6546 ****
 15 HG     32.333000   28.428000   24.265000 H     2 SER     0.4275 ****
 16 C      29.153000   30.639000   24.210000 C     2 SER     0.5973 ****
 17 O      28.578000   31.338000   23.376000 O     2 SER    -0.5679 ****
 18 N      29.808000   31.171000   25.243000 N     3 ALA    -0.4157 ****
 19 H      30.363000   30.547000   25.811000 H     3 ALA     0.2719 ****
 20 CA     29.754000   32.582000   25.631000 C     3 ALA     0.0337 ****
 21 HA     28.933000   33.074000   25.106000 H     3 ALA     0.0823 ****
 22 CB     29.451000   32.658000   27.135000 C     3 ALA    -0.1825 ****
 23 HB1    30.251000   32.181000   27.703000 H     3 ALA     0.0603 ****
 24 HB2    29.378000   33.703000   27.439000 H     3 ALA     0.0603 ****
 25 HB3    28.505000   32.160000   27.350000 H     3 ALA     0.0603 ****
 26 C      31.050000   33.307000   25.220000 C     3 ALA     0.5973 ****
 27 O      31.825000   33.778000   26.052000 O     3 ALA    -0.5679 ****
 28 N      31.301000   33.347000   23.909000 N     4 SER    -0.4157 ****
 29 H      30.596000   32.971000   23.292000 H     4 SER     0.2719 ****
 30 CA     32.420000   34.096000   23.322000 C     4 SER    -0.0249 ****
 31 HA     33.308000   33.923000   23.932000 H     4 SER     0.0843 ****
 32 CB     32.714000   33.581000   21.912000 C     4 SER     0.2117 ****
 33 HB2    32.838000   32.498000   21.941000 H     4 SER     0.0352 ****
 34 HB3    31.878000   33.829000   21.255000 H     4 SER     0.0352 ****
 35 OG     33.901000   34.169000   21.417000 O     4 SER    -0.6546 ****
 36 HG     34.002000   33.932000   20.491000 H     4 SER     0.4275 ****
 37 C      32.144000   35.607000   23.299000 C     4 SER     0.5973 ****
 38 O      31.002000   36.026000   23.112000 O     4 SER    -0.5679 ****
 39 N      33.192000   36.424000   23.458000 N     5 NME    -0.4157 ****
 40 H      34.101000   35.997000   23.552000 H     5 NME     0.2719 ****
 41 CH3    33.102000   37.882000   23.471000 C     5 NME    -0.1490 ****
 42 HH31   32.450000   38.201000   24.286000 H     5 NME     0.0976 ****
 43 HH32   34.092000   38.320000   23.609000 H     5 NME     0.0976 ****
 44 HH33   32.679000   38.233000   22.528000 H     5 NME     0.0976 ****
@<TRIPOS>BOND
    1     5     6 1
    2     5     7 1
    3     2     3 1
    4     2     4 1
    5     2     5 1
    6     1     2 1
    7    16    17 1
    8    16    18 1
    9    14    15 1
   10    11    12 1
   11    11    13 1
   12    11    14 1
   13     9    10 1
   14     9    11 1
   15     9    16 1
   16     7     8 1
   17     7     9 1
   18    26    27 1
   19    26    28 1
   20    22    23 1
   21    22    24 1
   22    22    25 1
   23    20    21 1
   24    20    22 1
   25    20    26 1
   26    18    19 1
   27    18    20 1
   28    37    38 1
   29    37    39 1
   30    35    36 1
   31    32    33 1
   32    32    34 1
   33    32    35 1
   34    30    31 1
   35    30    32 1
   36    30    37 1
   37    28    29 1
   38    28    30 1
   39    41    42 1
   40    41    43 1
   41    41    44 1
   42    39    40 1
   43    39    41 1
@<TRIPOS>SUBSTRUCTURE
      1  ACE              1 ****               0 ****  **** 
      2  SER              7 ****               0 ****  **** 
      3  ALA             18 ****               0 ****  **** 
      4  SER             28 ****               0 ****  **** 
      5  NME             39 ****               0 ****  **** 
