@<TRIPOS>MOLECULE
default_name
   44    43     5     0     1 
SMALL
USER_CHARGES
@<TRIPOS>ATOM
  1 H1     28.148000   26.052000   25.445000 H     1 ACE     0.1123 ****
  2 CH3    27.723000   26.775000   24.749000 C     1 ACE    -0.3662 ****
  3 H2     26.823000   27.209000   25.180000 H     1 ACE     0.1123 ****
  4 H3     27.486000   26.280000   23.809000 H     1 ACE     0.1123 ****
  5 C      28.736000   27.866000   24.500000 C     1 ACE     0.5972 ****
  6 O      29.829000   27.833000   25.050000 O     1 ACE    -0.5679 ****
  7 N      28.378000   28.837000   23.663000 N     2 SER    -0.4157 ****
  8 H      27.468000   28.792000   23.230000 H     2 SER     0.2719 ****
  9 CA     29.232000   29.979000   23.317000 C     2 SER    -0.0249 ****
 10 HA     29.833000   30.257000   24.179000 H     2 SER     0.0843 ****
 11 CB     30.201000   29.559000   22.206000 C     2 SER     0.2117 ****
 12 HB2    30.672000   28.610000   22.468000 H     2 SER     0.0352 ****
 13 HB3    29.657000   29.432000   21.268000 H     2 SER     0.0352 ****
 14 OG     31.206000   30.535000   22.045000 O     2 SER    -0.6546 ****
 15 HG     31.890000   30.355000   22.700000 H     2 SER     0.4275 ****
 16 C      28.363000   31.164000   22.862000 C     2 SER     0.5973 ****
 17 O      27.648000   31.006000   21.874000 O     2 SER    -0.5679 ****
 18 N      28.345000   32.331000   23.537000 N     3 ALA    -0.4157 ****
 19 H      27.757000   33.063000   23.160000 H     3 ALA     0.2719 ****
 20 CA     28.989000   32.684000   24.815000 C     3 ALA     0.0337 ****
 21 HA     28.602000   33.681000   25.026000 H     3 ALA     0.0823 ****
 22 CB     28.461000   31.832000   25.985000 C     3 ALA    -0.1825 ****
 23 HB1    28.899000   30.836000   25.985000 H     3 ALA     0.0603 ****
 24 HB2    28.727000   32.315000   26.927000 H     3 ALA     0.0603 ****
 25 HB3    27.375000   31.752000   25.930000 H     3 ALA     0.0603 ****
 26 C      30.514000   32.937000   24.783000 C     3 ALA     0.5973 ****
 27 O      31.151000   33.006000   25.830000 O     3 ALA    -0.5679 ****
 28 N      31.105000   33.093000   23.594000 N     4 SER    -0.4157 ****
 29 H      30.539000   32.993000   22.765000 H     4 SER     0.2719 ****
 30 CA     32.439000   33.694000   23.446000 C     4 SER    -0.0249 ****
 31 HA     33.117000   33.214000   24.153000 H     4 SER     0.0843 ****
 32 CB     32.983000   33.454000   22.035000 C     4 SER     0.2117 ****
 33 HB2    32.953000   32.390000   21.807000 H     4 SER     0.0352 ****
 34 HB3    32.368000   33.992000   21.312000 H     4 SER     0.0352 ****
 35 OG     34.323000   33.897000   21.946000 O     4 SER    -0.6546 ****
 36 HG     34.623000   33.789000   21.038000 H     4 SER     0.4275 ****
 37 C      32.407000   35.199000   23.762000 C     4 SER     0.5973 ****
 38 O      31.382000   35.852000   23.561000 O     4 SER    -0.5679 ****
 39 N      33.529000   35.753000   24.235000 N     5 NME    -0.4157 ****
 40 H      34.341000   35.158000   24.307000 H     5 NME     0.2719 ****
 41 CH3    33.662000   37.161000   24.600000 C     5 NME    -0.1490 ****
 42 HH31   32.950000   37.403000   25.393000 H     5 NME     0.0976 ****
 43 HH32   34.674000   37.366000   24.949000 H     5 NME     0.0976 ****
 44 HH33   33.444000   37.787000   23.733000 H     5 NME     0.0976 ****
@<TRIPOS>BOND
    1     5     6 1
    2     5     7 1
    3     2     3 1
    4     2     4 1
    5     2     5 1
    6     1     2 1
    7    16    17 1
    8    16    18 1
    9    14    15 1
   10    11    12 1
   11    11    13 1
   12    11    14 1
   13     9    10 1
   14     9    11 1
   15     9    16 1
   16     7     8 1
   17     7     9 1
   18    26    27 1
   19    26    28 1
   20    22    23 1
   21    22    24 1
   22    22    25 1
   23    20    21 1
   24    20    22 1
   25    20    26 1
   26    18    19 1
   27    18    20 1
   28    37    38 1
   29    37    39 1
   30    35    36 1
   31    32    33 1
   32    32    34 1
   33    32    35 1
   34    30    31 1
   35    30    32 1
   36    30    37 1
   37    28    29 1
   38    28    30 1
   39    41    42 1
   40    41    43 1
   41    41    44 1
   42    39    40 1
   43    39    41 1
@<TRIPOS>SUBSTRUCTURE
      1  ACE              1 ****               0 ****  **** 
      2  SER              7 ****               0 ****  **** 
      3  ALA             18 ****               0 ****  **** 
      4  SER             28 ****               0 ****  **** 
      5  NME             39 ****               0 ****  **** 
