@<TRIPOS>MOLECULE
default_name
   44    43     5     0     1 
SMALL
USER_CHARGES
@<TRIPOS>ATOM
  1 H1     26.598000   25.275000   24.161000 H     1 ACE     0.1123 ****
  2 CH3    26.453000   26.350000   24.067000 C     1 ACE    -0.3662 ****
  3 H2     25.956000   26.730000   24.958000 H     1 ACE     0.1123 ****
  4 H3     25.850000   26.563000   23.186000 H     1 ACE     0.1123 ****
  5 C      27.801000   27.015000   23.925000 C     1 ACE     0.5972 ****
  6 O      28.824000   26.343000   23.922000 O     1 ACE    -0.5679 ****
  7 N      27.803000   28.340000   23.800000 N     2 SER    -0.4157 ****
  8 H      26.922000   28.832000   23.848000 H     2 SER     0.2719 ****
  9 CA     29.012000   29.173000   23.739000 C     2 SER    -0.0249 ****
 10 HA     29.735000   28.791000   24.461000 H     2 SER     0.0843 ****
 11 CB     29.645000   29.077000   22.342000 C     2 SER     0.2117 ****
 12 HB2    29.803000   28.026000   22.093000 H     2 SER     0.0352 ****
 13 HB3    28.970000   29.515000   21.605000 H     2 SER     0.0352 ****
 14 OG     30.895000   29.745000   22.301000 O     2 SER    -0.6546 ****
 15 HG     31.345000   29.488000   21.488000 H     2 SER     0.4275 ****
 16 C      28.690000   30.628000   24.118000 C     2 SER     0.5973 ****
 17 O      27.527000   30.979000   24.311000 O     2 SER    -0.5679 ****
 18 N      29.719000   31.469000   24.231000 N     3 ALA    -0.4157 ****
 19 H      30.614000   31.102000   23.932000 H     3 ALA     0.2719 ****
 20 CA     29.612000   32.899000   24.527000 C     3 ALA     0.0337 ****
 21 HA     28.669000   33.271000   24.122000 H     3 ALA     0.0823 ****
 22 CB     29.588000   33.105000   26.049000 C     3 ALA    -0.1825 ****
 23 HB1    30.495000   32.708000   26.506000 H     3 ALA     0.0603 ****
 24 HB2    29.505000   34.169000   26.273000 H     3 ALA     0.0603 ****
 25 HB3    28.723000   32.592000   26.473000 H     3 ALA     0.0603 ****
 26 C      30.735000   33.695000   23.840000 C     3 ALA     0.5973 ****
 27 O      30.468000   34.557000   23.013000 O     3 ALA    -0.5679 ****
 28 N      31.996000   33.394000   24.177000 N     4 SER    -0.4157 ****
 29 H      32.124000   32.680000   24.876000 H     4 SER     0.2719 ****
 30 CA     33.219000   33.949000   23.558000 C     4 SER    -0.0249 ****
 31 HA     34.056000   33.523000   24.111000 H     4 SER     0.0843 ****
 32 CB     33.356000   33.436000   22.117000 C     4 SER     0.2117 ****
 33 HB2    33.139000   32.367000   22.086000 H     4 SER     0.0352 ****
 34 HB3    32.651000   33.960000   21.470000 H     4 SER     0.0352 ****
 35 OG     34.672000   33.643000   21.652000 O     4 SER    -0.6546 ****
 36 HG     34.875000   34.585000   21.781000 H     4 SER     0.4275 ****
 37 C      33.423000   35.479000   23.639000 C     4 SER     0.5973 ****
 38 O      34.376000   35.991000   23.051000 O     4 SER    -0.5679 ****
 39 N      32.576000   36.214000   24.371000 N     5 NME    -0.4157 ****
 40 H      31.778000   35.746000   24.769000 H     5 NME     0.2719 ****
 41 CH3    32.668000   37.665000   24.526000 C     5 NME    -0.1490 ****
 42 HH31   31.891000   38.023000   25.202000 H     5 NME     0.0976 ****
 43 HH32   33.648000   37.934000   24.926000 H     5 NME     0.0976 ****
 44 HH33   32.545000   38.145000   23.553000 H     5 NME     0.0976 ****
@<TRIPOS>BOND
    1     5     6 1
    2     5     7 1
    3     2     3 1
    4     2     4 1
    5     2     5 1
    6     1     2 1
    7    16    17 1
    8    16    18 1
    9    14    15 1
   10    11    12 1
   11    11    13 1
   12    11    14 1
   13     9    10 1
   14     9    11 1
   15     9    16 1
   16     7     8 1
   17     7     9 1
   18    26    27 1
   19    26    28 1
   20    22    23 1
   21    22    24 1
   22    22    25 1
   23    20    21 1
   24    20    22 1
   25    20    26 1
   26    18    19 1
   27    18    20 1
   28    37    38 1
   29    37    39 1
   30    35    36 1
   31    32    33 1
   32    32    34 1
   33    32    35 1
   34    30    31 1
   35    30    32 1
   36    30    37 1
   37    28    29 1
   38    28    30 1
   39    41    42 1
   40    41    43 1
   41    41    44 1
   42    39    40 1
   43    39    41 1
@<TRIPOS>SUBSTRUCTURE
      1  ACE              1 ****               0 ****  **** 
      2  SER              7 ****               0 ****  **** 
      3  ALA             18 ****               0 ****  **** 
      4  SER             28 ****               0 ****  **** 
      5  NME             39 ****               0 ****  **** 
