@<TRIPOS>MOLECULE
default_name
   44    43     5     0     1 
SMALL
USER_CHARGES
@<TRIPOS>ATOM
  1 H1     27.803000   29.337000   20.461000 H     1 ACE     0.1123 ****
  2 CH3    28.009000   30.175000   21.124000 C     1 ACE    -0.3662 ****
  3 H2     27.244000   30.940000   20.997000 H     1 ACE     0.1123 ****
  4 H3     28.988000   30.598000   20.900000 H     1 ACE     0.1123 ****
  5 C      27.996000   29.701000   22.557000 C     1 ACE     0.5972 ****
  6 O      27.240000   30.220000   23.369000 O     1 ACE    -0.5679 ****
  7 N      28.841000   28.718000   22.865000 N     2 SER    -0.4157 ****
  8 H      29.445000   28.384000   22.131000 H     2 SER     0.2719 ****
  9 CA     29.104000   28.235000   24.230000 C     2 SER    -0.0249 ****
 10 HA     28.198000   28.332000   24.829000 H     2 SER     0.0843 ****
 11 CB     29.470000   26.746000   24.184000 C     2 SER     0.2117 ****
 12 HB2    28.612000   26.175000   23.827000 H     2 SER     0.0352 ****
 13 HB3    30.307000   26.592000   23.501000 H     2 SER     0.0352 ****
 14 OG     29.833000   26.286000   25.468000 O     2 SER    -0.6546 ****
 15 HG     30.676000   26.709000   25.687000 H     2 SER     0.4275 ****
 16 C      30.203000   29.086000   24.887000 C     2 SER     0.5973 ****
 17 O      31.350000   28.650000   24.970000 O     2 SER    -0.5679 ****
 18 N      29.836000   30.310000   25.288000 N     3 ALA    -0.4157 ****
 19 H      28.855000   30.522000   25.202000 H     3 ALA     0.2719 ****
 20 CA     30.707000   31.461000   25.560000 C     3 ALA     0.0337 ****
 21 HA     30.104000   32.111000   26.194000 H     3 ALA     0.0823 ****
 22 CB     31.943000   31.133000   26.413000 C     3 ALA    -0.1825 ****
 23 HB1    32.689000   30.613000   25.811000 H     3 ALA     0.0603 ****
 24 HB2    32.387000   32.056000   26.787000 H     3 ALA     0.0603 ****
 25 HB3    31.659000   30.507000   27.259000 H     3 ALA     0.0603 ****
 26 C      30.978000   32.296000   24.291000 C     3 ALA     0.5973 ****
 27 O      30.976000   31.780000   23.174000 O     3 ALA    -0.5679 ****
 28 N      31.168000   33.607000   24.461000 N     4 SER    -0.4157 ****
 29 H      31.193000   33.980000   25.400000 H     4 SER     0.2719 ****
 30 CA     31.483000   34.559000   23.386000 C     4 SER    -0.0249 ****
 31 HA     32.194000   34.096000   22.701000 H     4 SER     0.0843 ****
 32 CB     30.210000   34.895000   22.598000 C     4 SER     0.2117 ****
 33 HB2    29.744000   33.970000   22.256000 H     4 SER     0.0352 ****
 34 HB3    29.509000   35.424000   23.246000 H     4 SER     0.0352 ****
 35 OG     30.514000   35.696000   21.471000 O     4 SER    -0.6546 ****
 36 HG     29.717000   35.784000   20.938000 H     4 SER     0.4275 ****
 37 C      32.134000   35.824000   23.968000 C     4 SER     0.5973 ****
 38 O      32.104000   36.027000   25.182000 O     4 SER    -0.5679 ****
 39 N      32.729000   36.665000   23.115000 N     5 NME    -0.4157 ****
 40 H      32.623000   36.461000   22.130000 H     5 NME     0.2719 ****
 41 CH3    33.414000   37.894000   23.506000 C     5 NME    -0.1490 ****
 42 HH31   34.228000   37.659000   24.195000 H     5 NME     0.0976 ****
 43 HH32   33.820000   38.396000   22.627000 H     5 NME     0.0976 ****
 44 HH33   32.713000   38.562000   24.011000 H     5 NME     0.0976 ****
@<TRIPOS>BOND
    1     5     6 1
    2     5     7 1
    3     2     3 1
    4     2     4 1
    5     2     5 1
    6     1     2 1
    7    16    17 1
    8    16    18 1
    9    14    15 1
   10    11    12 1
   11    11    13 1
   12    11    14 1
   13     9    10 1
   14     9    11 1
   15     9    16 1
   16     7     8 1
   17     7     9 1
   18    26    27 1
   19    26    28 1
   20    22    23 1
   21    22    24 1
   22    22    25 1
   23    20    21 1
   24    20    22 1
   25    20    26 1
   26    18    19 1
   27    18    20 1
   28    37    38 1
   29    37    39 1
   30    35    36 1
   31    32    33 1
   32    32    34 1
   33    32    35 1
   34    30    31 1
   35    30    32 1
   36    30    37 1
   37    28    29 1
   38    28    30 1
   39    41    42 1
   40    41    43 1
   41    41    44 1
   42    39    40 1
   43    39    41 1
@<TRIPOS>SUBSTRUCTURE
      1  ACE              1 ****               0 ****  **** 
      2  SER              7 ****               0 ****  **** 
      3  ALA             18 ****               0 ****  **** 
      4  SER             28 ****               0 ****  **** 
      5  NME             39 ****               0 ****  **** 
