@<TRIPOS>MOLECULE
default_name
   44    43     5     0     1 
SMALL
USER_CHARGES
@<TRIPOS>ATOM
  1 H1     26.243000   31.512000   21.140000 H     1 ACE     0.1123 ****
  2 CH3    27.282000   31.219000   21.284000 C     1 ACE    -0.3662 ****
  3 H2     27.926000   32.092000   21.185000 H     1 ACE     0.1123 ****
  4 H3     27.560000   30.468000   20.547000 H     1 ACE     0.1123 ****
  5 C      27.442000   30.645000   22.671000 C     1 ACE     0.5972 ****
  6 O      26.476000   30.551000   23.417000 O     1 ACE    -0.5679 ****
  7 N      28.667000   30.255000   23.015000 N     2 SER    -0.4157 ****
  8 H      29.414000   30.390000   22.348000 H     2 SER     0.2719 ****
  9 CA     29.052000   29.810000   24.359000 C     2 SER    -0.0249 ****
 10 HA     28.521000   30.422000   25.089000 H     2 SER     0.0843 ****
 11 CB     28.650000   28.352000   24.590000 C     2 SER     0.2117 ****
 12 HB2    27.576000   28.243000   24.435000 H     2 SER     0.0352 ****
 13 HB3    29.182000   27.710000   23.886000 H     2 SER     0.0352 ****
 14 OG     28.972000   27.976000   25.916000 O     2 SER    -0.6546 ****
 15 HG     28.646000   27.084000   26.065000 H     2 SER     0.4275 ****
 16 C      30.556000   30.000000   24.566000 C     2 SER     0.5973 ****
 17 O      31.330000   29.803000   23.629000 O     2 SER    -0.5679 ****
 18 N      30.948000   30.414000   25.778000 N     3 ALA    -0.4157 ****
 19 H      30.235000   30.404000   26.492000 H     3 ALA     0.2719 ****
 20 CA     32.230000   31.043000   26.147000 C     3 ALA     0.0337 ****
 21 HA     32.198000   31.152000   27.232000 H     3 ALA     0.0823 ****
 22 CB     33.412000   30.101000   25.868000 C     3 ALA    -0.1825 ****
 23 HB1    33.587000   30.017000   24.795000 H     3 ALA     0.0603 ****
 24 HB2    34.311000   30.502000   26.336000 H     3 ALA     0.0603 ****
 25 HB3    33.207000   29.113000   26.280000 H     3 ALA     0.0603 ****
 26 C      32.447000   32.485000   25.625000 C     3 ALA     0.5973 ****
 27 O      33.127000   33.267000   26.284000 O     3 ALA    -0.5679 ****
 28 N      31.881000   32.862000   24.474000 N     4 SER    -0.4157 ****
 29 H      31.298000   32.209000   23.981000 H     4 SER     0.2719 ****
 30 CA     31.887000   34.212000   23.902000 C     4 SER    -0.0249 ****
 31 HA     31.756000   34.939000   24.704000 H     4 SER     0.0843 ****
 32 CB     33.237000   34.481000   23.225000 C     4 SER     0.2117 ****
 33 HB2    34.039000   34.300000   23.943000 H     4 SER     0.0352 ****
 34 HB3    33.362000   33.804000   22.378000 H     4 SER     0.0352 ****
 35 OG     33.317000   35.822000   22.779000 O     4 SER    -0.6546 ****
 36 HG     34.226000   35.997000   22.514000 H     4 SER     0.4275 ****
 37 C      30.713000   34.361000   22.917000 C     4 SER     0.5973 ****
 38 O      30.061000   33.371000   22.574000 O     4 SER    -0.5679 ****
 39 N      30.428000   35.589000   22.474000 N     5 NME    -0.4157 ****
 40 H      31.071000   36.325000   22.738000 H     5 NME     0.2719 ****
 41 CH3    29.329000   35.910000   21.567000 C     5 NME    -0.1490 ****
 42 HH31   28.383000   35.584000   22.003000 H     5 NME     0.0976 ****
 43 HH32   29.291000   36.985000   21.387000 H     5 NME     0.0976 ****
 44 HH33   29.473000   35.391000   20.617000 H     5 NME     0.0976 ****
@<TRIPOS>BOND
    1     5     6 1
    2     5     7 1
    3     2     3 1
    4     2     4 1
    5     2     5 1
    6     1     2 1
    7    16    17 1
    8    16    18 1
    9    14    15 1
   10    11    12 1
   11    11    13 1
   12    11    14 1
   13     9    10 1
   14     9    11 1
   15     9    16 1
   16     7     8 1
   17     7     9 1
   18    26    27 1
   19    26    28 1
   20    22    23 1
   21    22    24 1
   22    22    25 1
   23    20    21 1
   24    20    22 1
   25    20    26 1
   26    18    19 1
   27    18    20 1
   28    37    38 1
   29    37    39 1
   30    35    36 1
   31    32    33 1
   32    32    34 1
   33    32    35 1
   34    30    31 1
   35    30    32 1
   36    30    37 1
   37    28    29 1
   38    28    30 1
   39    41    42 1
   40    41    43 1
   41    41    44 1
   42    39    40 1
   43    39    41 1
@<TRIPOS>SUBSTRUCTURE
      1  ACE              1 ****               0 ****  **** 
      2  SER              7 ****               0 ****  **** 
      3  ALA             18 ****               0 ****  **** 
      4  SER             28 ****               0 ****  **** 
      5  NME             39 ****               0 ****  **** 
