@<TRIPOS>MOLECULE
default_name
   44    43     5     0     1 
SMALL
USER_CHARGES
@<TRIPOS>ATOM
  1 H1     28.607000   24.625000   24.232000 H     1 ACE     0.1123 ****
  2 CH3    28.210000   25.589000   24.549000 C     1 ACE    -0.3662 ****
  3 H2     28.515000   25.790000   25.574000 H     1 ACE     0.1123 ****
  4 H3     27.124000   25.578000   24.481000 H     1 ACE     0.1123 ****
  5 C      28.758000   26.667000   23.645000 C     1 ACE     0.5972 ****
  6 O      29.515000   26.378000   22.726000 O     1 ACE    -0.5679 ****
  7 N      28.370000   27.914000   23.897000 N     2 SER    -0.4157 ****
  8 H      27.776000   28.089000   24.696000 H     2 SER     0.2719 ****
  9 CA     28.879000   29.099000   23.194000 C     2 SER    -0.0249 ****
 10 HA     29.955000   28.985000   23.063000 H     2 SER     0.0843 ****
 11 CB     28.232000   29.205000   21.806000 C     2 SER     0.2117 ****
 12 HB2    28.206000   28.223000   21.330000 H     2 SER     0.0352 ****
 13 HB3    27.210000   29.573000   21.906000 H     2 SER     0.0352 ****
 14 OG     28.984000   30.085000   20.990000 O     2 SER    -0.6546 ****
 15 HG     29.562000   29.547000   20.437000 H     2 SER     0.4275 ****
 16 C      28.635000   30.377000   24.015000 C     2 SER     0.5973 ****
 17 O      28.007000   30.303000   25.069000 O     2 SER    -0.5679 ****
 18 N      29.141000   31.512000   23.513000 N     3 ALA    -0.4157 ****
 19 H      29.546000   31.409000   22.592000 H     3 ALA     0.2719 ****
 20 CA     29.131000   32.877000   24.066000 C     3 ALA     0.0337 ****
 21 HA     29.009000   33.522000   23.196000 H     3 ALA     0.0823 ****
 22 CB     27.911000   33.202000   24.943000 C     3 ALA    -0.1825 ****
 23 HB1    27.996000   32.696000   25.906000 H     3 ALA     0.0603 ****
 24 HB2    27.868000   34.276000   25.123000 H     3 ALA     0.0603 ****
 25 HB3    26.994000   32.887000   24.444000 H     3 ALA     0.0603 ****
 26 C      30.490000   33.271000   24.676000 C     3 ALA     0.5973 ****
 27 O      30.851000   32.828000   25.763000 O     3 ALA    -0.5679 ****
 28 N      31.264000   34.092000   23.961000 N     4 SER    -0.4157 ****
 29 H      30.917000   34.452000   23.082000 H     4 SER     0.2719 ****
 30 CA     32.549000   34.646000   24.411000 C     4 SER    -0.0249 ****
 31 HA     32.459000   34.939000   25.458000 H     4 SER     0.0843 ****
 32 CB     33.645000   33.577000   24.310000 C     4 SER     0.2117 ****
 33 HB2    33.330000   32.686000   24.855000 H     4 SER     0.0352 ****
 34 HB3    33.803000   33.313000   23.263000 H     4 SER     0.0352 ****
 35 OG     34.857000   34.046000   24.872000 O     4 SER    -0.6546 ****
 36 HG     35.451000   33.295000   24.980000 H     4 SER     0.4275 ****
 37 C      32.905000   35.898000   23.593000 C     4 SER     0.5973 ****
 38 O      32.272000   36.162000   22.570000 O     4 SER    -0.5679 ****
 39 N      33.899000   36.672000   24.042000 N     5 NME    -0.4157 ****
 40 H      34.419000   36.325000   24.837000 H     5 NME     0.2719 ****
 41 CH3    34.343000   37.907000   23.399000 C     5 NME    -0.1490 ****
 42 HH31   33.512000   38.613000   23.345000 H     5 NME     0.0976 ****
 43 HH32   35.160000   38.353000   23.965000 H     5 NME     0.0976 ****
 44 HH33   34.683000   37.691000   22.384000 H     5 NME     0.0976 ****
@<TRIPOS>BOND
    1     5     6 1
    2     5     7 1
    3     2     3 1
    4     2     4 1
    5     2     5 1
    6     1     2 1
    7    16    17 1
    8    16    18 1
    9    14    15 1
   10    11    12 1
   11    11    13 1
   12    11    14 1
   13     9    10 1
   14     9    11 1
   15     9    16 1
   16     7     8 1
   17     7     9 1
   18    26    27 1
   19    26    28 1
   20    22    23 1
   21    22    24 1
   22    22    25 1
   23    20    21 1
   24    20    22 1
   25    20    26 1
   26    18    19 1
   27    18    20 1
   28    37    38 1
   29    37    39 1
   30    35    36 1
   31    32    33 1
   32    32    34 1
   33    32    35 1
   34    30    31 1
   35    30    32 1
   36    30    37 1
   37    28    29 1
   38    28    30 1
   39    41    42 1
   40    41    43 1
   41    41    44 1
   42    39    40 1
   43    39    41 1
@<TRIPOS>SUBSTRUCTURE
      1  ACE              1 ****               0 ****  **** 
      2  SER              7 ****               0 ****  **** 
      3  ALA             18 ****               0 ****  **** 
      4  SER             28 ****               0 ****  **** 
      5  NME             39 ****               0 ****  **** 
