@<TRIPOS>MOLECULE
default_name
   44    43     5     0     1 
SMALL
USER_CHARGES
@<TRIPOS>ATOM
  1 H1     25.581000   26.407000   22.072000 H     1 ACE     0.1123 ****
  2 CH3    26.069000   27.377000   21.984000 C     1 ACE    -0.3662 ****
  3 H2     25.336000   28.169000   22.126000 H     1 ACE     0.1123 ****
  4 H3     26.528000   27.468000   21.002000 H     1 ACE     0.1123 ****
  5 C      27.136000   27.487000   23.048000 C     1 ACE     0.5972 ****
  6 O      27.332000   26.561000   23.823000 O     1 ACE    -0.5679 ****
  7 N      27.832000   28.620000   23.078000 N     2 SER    -0.4157 ****
  8 H      27.597000   29.354000   22.423000 H     2 SER     0.2719 ****
  9 CA     28.844000   28.958000   24.088000 C     2 SER    -0.0249 ****
 10 HA     28.480000   28.642000   25.067000 H     2 SER     0.0843 ****
 11 CB     30.147000   28.201000   23.797000 C     2 SER     0.2117 ****
 12 HB2    29.932000   27.133000   23.731000 H     2 SER     0.0352 ****
 13 HB3    30.559000   28.537000   22.844000 H     2 SER     0.0352 ****
 14 OG     31.097000   28.411000   24.827000 O     2 SER    -0.6546 ****
 15 HG     31.777000   27.735000   24.747000 H     2 SER     0.4275 ****
 16 C      29.079000   30.476000   24.131000 C     2 SER     0.5973 ****
 17 O      28.661000   31.177000   23.215000 O     2 SER    -0.5679 ****
 18 N      29.724000   30.953000   25.200000 N     3 ALA    -0.4157 ****
 19 H      30.065000   30.249000   25.837000 H     3 ALA     0.2719 ****
 20 CA     30.124000   32.335000   25.494000 C     3 ALA     0.0337 ****
 21 HA     29.203000   32.879000   25.714000 H     3 ALA     0.0823 ****
 22 CB     30.947000   32.341000   26.794000 C     3 ALA    -0.1825 ****
 23 HB1    31.858000   31.755000   26.672000 H     3 ALA     0.0603 ****
 24 HB2    31.206000   33.368000   27.060000 H     3 ALA     0.0603 ****
 25 HB3    30.356000   31.914000   27.605000 H     3 ALA     0.0603 ****
 26 C      30.763000   33.126000   24.324000 C     3 ALA     0.5973 ****
 27 O      30.063000   33.682000   23.483000 O     3 ALA    -0.5679 ****
 28 N      32.094000   33.286000   24.341000 N     4 SER    -0.4157 ****
 29 H      32.591000   32.838000   25.092000 H     4 SER     0.2719 ****
 30 CA     32.831000   34.302000   23.566000 C     4 SER    -0.0249 ****
 31 HA     33.889000   34.175000   23.789000 H     4 SER     0.0843 ****
 32 CB     32.673000   34.040000   22.057000 C     4 SER     0.2117 ****
 33 HB2    32.796000   32.973000   21.866000 H     4 SER     0.0352 ****
 34 HB3    31.678000   34.343000   21.728000 H     4 SER     0.0352 ****
 35 OG     33.645000   34.749000   21.308000 O     4 SER    -0.6546 ****
 36 HG     33.538000   34.513000   20.381000 H     4 SER     0.4275 ****
 37 C      32.476000   35.741000   24.003000 C     4 SER     0.5973 ****
 38 O      31.919000   35.944000   25.082000 O     4 SER    -0.5679 ****
 39 N      32.866000   36.747000   23.214000 N     5 NME    -0.4157 ****
 40 H      33.331000   36.489000   22.352000 H     5 NME     0.2719 ****
 41 CH3    32.629000   38.162000   23.492000 C     5 NME    -0.1490 ****
 42 HH31   31.556000   38.344000   23.574000 H     5 NME     0.0976 ****
 43 HH32   33.102000   38.435000   24.437000 H     5 NME     0.0976 ****
 44 HH33   33.039000   38.778000   22.690000 H     5 NME     0.0976 ****
@<TRIPOS>BOND
    1     5     6 1
    2     5     7 1
    3     2     3 1
    4     2     4 1
    5     2     5 1
    6     1     2 1
    7    16    17 1
    8    16    18 1
    9    14    15 1
   10    11    12 1
   11    11    13 1
   12    11    14 1
   13     9    10 1
   14     9    11 1
   15     9    16 1
   16     7     8 1
   17     7     9 1
   18    26    27 1
   19    26    28 1
   20    22    23 1
   21    22    24 1
   22    22    25 1
   23    20    21 1
   24    20    22 1
   25    20    26 1
   26    18    19 1
   27    18    20 1
   28    37    38 1
   29    37    39 1
   30    35    36 1
   31    32    33 1
   32    32    34 1
   33    32    35 1
   34    30    31 1
   35    30    32 1
   36    30    37 1
   37    28    29 1
   38    28    30 1
   39    41    42 1
   40    41    43 1
   41    41    44 1
   42    39    40 1
   43    39    41 1
@<TRIPOS>SUBSTRUCTURE
      1  ACE              1 ****               0 ****  **** 
      2  SER              7 ****               0 ****  **** 
      3  ALA             18 ****               0 ****  **** 
      4  SER             28 ****               0 ****  **** 
      5  NME             39 ****               0 ****  **** 
