@<TRIPOS>MOLECULE
default_name
   44    43     5     0     1 
SMALL
USER_CHARGES
@<TRIPOS>ATOM
  1 H1     25.011000   27.709000   22.031000 H     1 ACE     0.1123 ****
  2 CH3    25.290000   28.473000   22.755000 C     1 ACE    -0.3662 ****
  3 H2     25.044000   28.131000   23.759000 H     1 ACE     0.1123 ****
  4 H3     24.758000   29.396000   22.536000 H     1 ACE     0.1123 ****
  5 C      26.778000   28.717000   22.661000 C     1 ACE     0.5972 ****
  6 O      27.454000   28.094000   21.853000 O     1 ACE    -0.5679 ****
  7 N      27.286000   29.629000   23.486000 N     2 SER    -0.4157 ****
  8 H      26.669000   30.081000   24.147000 H     2 SER     0.2719 ****
  9 CA     28.712000   29.961000   23.593000 C     2 SER    -0.0249 ****
 10 HA     29.296000   29.042000   23.520000 H     2 SER     0.0843 ****
 11 CB     29.125000   30.884000   22.433000 C     2 SER     0.2117 ****
 12 HB2    28.885000   30.408000   21.481000 H     2 SER     0.0352 ****
 13 HB3    28.573000   31.822000   22.508000 H     2 SER     0.0352 ****
 14 OG     30.516000   31.153000   22.478000 O     2 SER    -0.6546 ****
 15 HG     30.688000   31.997000   22.015000 H     2 SER     0.4275 ****
 16 C      29.018000   30.623000   24.945000 C     2 SER     0.5973 ****
 17 O      28.105000   31.046000   25.653000 O     2 SER    -0.5679 ****
 18 N      30.304000   30.763000   25.268000 N     3 ALA    -0.4157 ****
 19 H      30.972000   30.407000   24.598000 H     3 ALA     0.2719 ****
 20 CA     30.824000   31.529000   26.405000 C     3 ALA     0.0337 ****
 21 HA     29.992000   32.022000   26.911000 H     3 ALA     0.0823 ****
 22 CB     31.462000   30.548000   27.398000 C     3 ALA    -0.1825 ****
 23 HB1    32.316000   30.051000   26.938000 H     3 ALA     0.0603 ****
 24 HB2    31.799000   31.090000   28.283000 H     3 ALA     0.0603 ****
 25 HB3    30.727000   29.802000   27.704000 H     3 ALA     0.0603 ****
 26 C      31.791000   32.655000   25.963000 C     3 ALA     0.5973 ****
 27 O      32.467000   33.261000   26.789000 O     3 ALA    -0.5679 ****
 28 N      31.868000   32.936000   24.655000 N     4 SER    -0.4157 ****
 29 H      31.280000   32.407000   24.023000 H     4 SER     0.2719 ****
 30 CA     32.650000   34.030000   24.061000 C     4 SER    -0.0249 ****
 31 HA     32.578000   34.902000   24.712000 H     4 SER     0.0843 ****
 32 CB     34.128000   33.624000   23.983000 C     4 SER     0.2117 ****
 33 HB2    34.466000   33.310000   24.971000 H     4 SER     0.0352 ****
 34 HB3    34.241000   32.789000   23.289000 H     4 SER     0.0352 ****
 35 OG     34.925000   34.712000   23.553000 O     4 SER    -0.6546 ****
 36 HG     35.850000   34.480000   23.682000 H     4 SER     0.4275 ****
 37 C      32.099000   34.426000   22.679000 C     4 SER     0.5973 ****
 38 O      31.299000   33.692000   22.090000 O     4 SER    -0.5679 ****
 39 N      32.512000   35.587000   22.160000 N     5 NME    -0.4157 ****
 40 H      33.238000   36.076000   22.667000 H     5 NME     0.2719 ****
 41 CH3    32.073000   36.127000   20.875000 C     5 NME    -0.1490 ****
 42 HH31   30.989000   36.255000   20.880000 H     5 NME     0.0976 ****
 43 HH32   32.548000   37.091000   20.691000 H     5 NME     0.0976 ****
 44 HH33   32.341000   35.436000   20.074000 H     5 NME     0.0976 ****
@<TRIPOS>BOND
    1     5     6 1
    2     5     7 1
    3     2     3 1
    4     2     4 1
    5     2     5 1
    6     1     2 1
    7    16    17 1
    8    16    18 1
    9    14    15 1
   10    11    12 1
   11    11    13 1
   12    11    14 1
   13     9    10 1
   14     9    11 1
   15     9    16 1
   16     7     8 1
   17     7     9 1
   18    26    27 1
   19    26    28 1
   20    22    23 1
   21    22    24 1
   22    22    25 1
   23    20    21 1
   24    20    22 1
   25    20    26 1
   26    18    19 1
   27    18    20 1
   28    37    38 1
   29    37    39 1
   30    35    36 1
   31    32    33 1
   32    32    34 1
   33    32    35 1
   34    30    31 1
   35    30    32 1
   36    30    37 1
   37    28    29 1
   38    28    30 1
   39    41    42 1
   40    41    43 1
   41    41    44 1
   42    39    40 1
   43    39    41 1
@<TRIPOS>SUBSTRUCTURE
      1  ACE              1 ****               0 ****  **** 
      2  SER              7 ****               0 ****  **** 
      3  ALA             18 ****               0 ****  **** 
      4  SER             28 ****               0 ****  **** 
      5  NME             39 ****               0 ****  **** 
