@<TRIPOS>MOLECULE
default_name
   44    43     5     0     1 
SMALL
USER_CHARGES
@<TRIPOS>ATOM
  1 H1     26.428000   32.737000   22.690000 H     1 ACE     0.1123 ****
  2 CH3    27.434000   32.380000   22.472000 C     1 ACE    -0.3662 ****
  3 H2     28.157000   33.158000   22.703000 H     1 ACE     0.1123 ****
  4 H3     27.505000   32.110000   21.420000 H     1 ACE     0.1123 ****
  5 C      27.718000   31.165000   23.323000 C     1 ACE     0.5972 ****
  6 O      26.942000   30.842000   24.210000 O     1 ACE    -0.5679 ****
  7 N      28.848000   30.504000   23.074000 N     2 SER    -0.4157 ****
  8 H      29.469000   30.900000   22.378000 H     2 SER     0.2719 ****
  9 CA     29.273000   29.272000   23.773000 C     2 SER    -0.0249 ****
 10 HA     28.378000   28.759000   24.129000 H     2 SER     0.0843 ****
 11 CB     29.953000   28.334000   22.765000 C     2 SER     0.2117 ****
 12 HB2    29.297000   28.189000   21.906000 H     2 SER     0.0352 ****
 13 HB3    30.888000   28.782000   22.422000 H     2 SER     0.0352 ****
 14 OG     30.221000   27.078000   23.348000 O     2 SER    -0.6546 ****
 15 HG     30.764000   27.245000   24.136000 H     2 SER     0.4275 ****
 16 C      30.150000   29.543000   25.017000 C     2 SER     0.5973 ****
 17 O      31.037000   28.752000   25.329000 O     2 SER    -0.5679 ****
 18 N      29.952000   30.719000   25.631000 N     3 ALA    -0.4157 ****
 19 H      29.133000   31.210000   25.310000 H     3 ALA     0.2719 ****
 20 CA     30.736000   31.457000   26.647000 C     3 ALA     0.0337 ****
 21 HA     30.063000   31.677000   27.476000 H     3 ALA     0.0823 ****
 22 CB     31.924000   30.676000   27.233000 C     3 ALA    -0.1825 ****
 23 HB1    32.654000   30.453000   26.455000 H     3 ALA     0.0603 ****
 24 HB2    32.407000   31.278000   28.004000 H     3 ALA     0.0603 ****
 25 HB3    31.574000   29.749000   27.688000 H     3 ALA     0.0603 ****
 26 C      31.172000   32.819000   26.072000 C     3 ALA     0.5973 ****
 27 O      31.253000   33.817000   26.780000 O     3 ALA    -0.5679 ****
 28 N      31.403000   32.852000   24.756000 N     4 SER    -0.4157 ****
 29 H      31.316000   31.979000   24.256000 H     4 SER     0.2719 ****
 30 CA     31.595000   34.042000   23.924000 C     4 SER    -0.0249 ****
 31 HA     30.972000   34.850000   24.311000 H     4 SER     0.0843 ****
 32 CB     33.058000   34.495000   24.001000 C     4 SER     0.2117 ****
 33 HB2    33.330000   34.638000   25.049000 H     4 SER     0.0352 ****
 34 HB3    33.703000   33.727000   23.571000 H     4 SER     0.0352 ****
 35 OG     33.243000   35.716000   23.310000 O     4 SER    -0.6546 ****
 36 HG     34.105000   36.072000   23.549000 H     4 SER     0.4275 ****
 37 C      31.141000   33.737000   22.484000 C     4 SER     0.5973 ****
 38 O      30.783000   32.595000   22.175000 O     4 SER    -0.5679 ****
 39 N      31.114000   34.750000   21.612000 N     5 NME    -0.4157 ****
 40 H      31.501000   35.630000   21.933000 H     5 NME     0.2719 ****
 41 CH3    30.673000   34.644000   20.223000 C     5 NME    -0.1490 ****
 42 HH31   30.799000   35.601000   19.716000 H     5 NME     0.0976 ****
 43 HH32   31.263000   33.885000   19.706000 H     5 NME     0.0976 ****
 44 HH33   29.621000   34.355000   20.189000 H     5 NME     0.0976 ****
@<TRIPOS>BOND
    1     5     6 1
    2     5     7 1
    3     2     3 1
    4     2     4 1
    5     2     5 1
    6     1     2 1
    7    16    17 1
    8    16    18 1
    9    14    15 1
   10    11    12 1
   11    11    13 1
   12    11    14 1
   13     9    10 1
   14     9    11 1
   15     9    16 1
   16     7     8 1
   17     7     9 1
   18    26    27 1
   19    26    28 1
   20    22    23 1
   21    22    24 1
   22    22    25 1
   23    20    21 1
   24    20    22 1
   25    20    26 1
   26    18    19 1
   27    18    20 1
   28    37    38 1
   29    37    39 1
   30    35    36 1
   31    32    33 1
   32    32    34 1
   33    32    35 1
   34    30    31 1
   35    30    32 1
   36    30    37 1
   37    28    29 1
   38    28    30 1
   39    41    42 1
   40    41    43 1
   41    41    44 1
   42    39    40 1
   43    39    41 1
@<TRIPOS>SUBSTRUCTURE
      1  ACE              1 ****               0 ****  **** 
      2  SER              7 ****               0 ****  **** 
      3  ALA             18 ****               0 ****  **** 
      4  SER             28 ****               0 ****  **** 
      5  NME             39 ****               0 ****  **** 
