@<TRIPOS>MOLECULE
default_name
   44    43     5     0     1 
SMALL
USER_CHARGES
@<TRIPOS>ATOM
  1 H1     24.710000   30.245000   21.698000 H     1 ACE     0.1123 ****
  2 CH3    25.744000   30.586000   21.719000 C     1 ACE    -0.3662 ****
  3 H2     25.769000   31.671000   21.795000 H     1 ACE     0.1123 ****
  4 H3     26.254000   30.264000   20.814000 H     1 ACE     0.1123 ****
  5 C      26.432000   29.986000   22.923000 C     1 ACE     0.5972 ****
  6 O      25.817000   29.246000   23.679000 O     1 ACE    -0.5679 ****
  7 N      27.714000   30.297000   23.095000 N     2 SER    -0.4157 ****
  8 H      28.150000   30.931000   22.441000 H     2 SER     0.2719 ****
  9 CA     28.528000   29.886000   24.248000 C     2 SER    -0.0249 ****
 10 HA     27.923000   29.977000   25.151000 H     2 SER     0.0843 ****
 11 CB     28.939000   28.415000   24.098000 C     2 SER     0.2117 ****
 12 HB2    28.045000   27.807000   23.955000 H     2 SER     0.0352 ****
 13 HB3    29.585000   28.303000   23.226000 H     2 SER     0.0352 ****
 14 OG     29.618000   27.962000   25.255000 O     2 SER    -0.6546 ****
 15 HG     29.638000   26.999000   25.234000 H     2 SER     0.4275 ****
 16 C      29.753000   30.801000   24.402000 C     2 SER     0.5973 ****
 17 O      30.092000   31.532000   23.473000 O     2 SER    -0.5679 ****
 18 N      30.426000   30.728000   25.555000 N     3 ALA    -0.4157 ****
 19 H      30.126000   29.989000   26.175000 H     3 ALA     0.2719 ****
 20 CA     31.476000   31.622000   26.062000 C     3 ALA     0.0337 ****
 21 HA     31.223000   31.849000   27.098000 H     3 ALA     0.0823 ****
 22 CB     32.796000   30.831000   26.095000 C     3 ALA    -0.1825 ****
 23 HB1    33.078000   30.523000   25.087000 H     3 ALA     0.0603 ****
 24 HB2    33.588000   31.444000   26.527000 H     3 ALA     0.0603 ****
 25 HB3    32.673000   29.939000   26.711000 H     3 ALA     0.0603 ****
 26 C      31.591000   33.005000   25.367000 C     3 ALA     0.5973 ****
 27 O      30.790000   33.890000   25.654000 O     3 ALA    -0.5679 ****
 28 N      32.614000   33.226000   24.532000 N     4 SER    -0.4157 ****
 29 H      33.199000   32.438000   24.306000 H     4 SER     0.2719 ****
 30 CA     32.992000   34.540000   23.975000 C     4 SER    -0.0249 ****
 31 HA     32.705000   35.300000   24.703000 H     4 SER     0.0843 ****
 32 CB     34.521000   34.607000   23.846000 C     4 SER     0.2117 ****
 33 HB2    34.977000   34.319000   24.795000 H     4 SER     0.0352 ****
 34 HB3    34.853000   33.916000   23.070000 H     4 SER     0.0352 ****
 35 OG     34.943000   35.913000   23.522000 O     4 SER    -0.6546 ****
 36 HG     34.479000   36.157000   22.703000 H     4 SER     0.4275 ****
 37 C      32.276000   34.924000   22.659000 C     4 SER     0.5973 ****
 38 O      32.858000   35.605000   21.812000 O     4 SER    -0.5679 ****
 39 N      31.035000   34.470000   22.450000 N     5 NME    -0.4157 ****
 40 H      30.604000   33.932000   23.185000 H     5 NME     0.2719 ****
 41 CH3    30.251000   34.725000   21.244000 C     5 NME    -0.1490 ****
 42 HH31   29.298000   34.199000   21.302000 H     5 NME     0.0976 ****
 43 HH32   30.067000   35.797000   21.145000 H     5 NME     0.0976 ****
 44 HH33   30.801000   34.380000   20.366000 H     5 NME     0.0976 ****
@<TRIPOS>BOND
    1     5     6 1
    2     5     7 1
    3     2     3 1
    4     2     4 1
    5     2     5 1
    6     1     2 1
    7    16    17 1
    8    16    18 1
    9    14    15 1
   10    11    12 1
   11    11    13 1
   12    11    14 1
   13     9    10 1
   14     9    11 1
   15     9    16 1
   16     7     8 1
   17     7     9 1
   18    26    27 1
   19    26    28 1
   20    22    23 1
   21    22    24 1
   22    22    25 1
   23    20    21 1
   24    20    22 1
   25    20    26 1
   26    18    19 1
   27    18    20 1
   28    37    38 1
   29    37    39 1
   30    35    36 1
   31    32    33 1
   32    32    34 1
   33    32    35 1
   34    30    31 1
   35    30    32 1
   36    30    37 1
   37    28    29 1
   38    28    30 1
   39    41    42 1
   40    41    43 1
   41    41    44 1
   42    39    40 1
   43    39    41 1
@<TRIPOS>SUBSTRUCTURE
      1  ACE              1 ****               0 ****  **** 
      2  SER              7 ****               0 ****  **** 
      3  ALA             18 ****               0 ****  **** 
      4  SER             28 ****               0 ****  **** 
      5  NME             39 ****               0 ****  **** 
