@<TRIPOS>MOLECULE
default_name
   44    43     5     0     1 
SMALL
USER_CHARGES
@<TRIPOS>ATOM
  1 H1     24.911000   28.297000   23.859000 H     1 ACE     0.1123 ****
  2 CH3    25.469000   28.974000   23.213000 C     1 ACE    -0.3662 ****
  3 H2     25.109000   29.991000   23.356000 H     1 ACE     0.1123 ****
  4 H3     25.346000   28.674000   22.175000 H     1 ACE     0.1123 ****
  5 C      26.931000   28.907000   23.586000 C     1 ACE     0.5972 ****
  6 O      27.305000   28.172000   24.491000 O     1 ACE    -0.5679 ****
  7 N      27.763000   29.674000   22.884000 N     2 SER    -0.4157 ****
  8 H      27.372000   30.292000   22.194000 H     2 SER     0.2719 ****
  9 CA     29.184000   29.820000   23.225000 C     2 SER    -0.0249 ****
 10 HA     29.582000   28.840000   23.489000 H     2 SER     0.0843 ****
 11 CB     29.977000   30.336000   22.023000 C     2 SER     0.2117 ****
 12 HB2    29.879000   29.638000   21.191000 H     2 SER     0.0352 ****
 13 HB3    29.586000   31.310000   21.722000 H     2 SER     0.0352 ****
 14 OG     31.341000   30.469000   22.369000 O     2 SER    -0.6546 ****
 15 HG     31.642000   31.347000   22.053000 H     2 SER     0.4275 ****
 16 C      29.383000   30.763000   24.416000 C     2 SER     0.5973 ****
 17 O      28.778000   31.831000   24.466000 O     2 SER    -0.5679 ****
 18 N      30.282000   30.396000   25.335000 N     3 ALA    -0.4157 ****
 19 H      30.712000   29.493000   25.218000 H     3 ALA     0.2719 ****
 20 CA     30.805000   31.251000   26.409000 C     3 ALA     0.0337 ****
 21 HA     30.016000   31.372000   27.153000 H     3 ALA     0.0823 ****
 22 CB     31.976000   30.514000   27.070000 C     3 ALA    -0.1825 ****
 23 HB1    32.784000   30.370000   26.351000 H     3 ALA     0.0603 ****
 24 HB2    32.348000   31.104000   27.910000 H     3 ALA     0.0603 ****
 25 HB3    31.643000   29.545000   27.444000 H     3 ALA     0.0603 ****
 26 C      31.215000   32.678000   25.973000 C     3 ALA     0.5973 ****
 27 O      31.160000   33.606000   26.777000 O     3 ALA    -0.5679 ****
 28 N      31.679000   32.850000   24.729000 N     4 SER    -0.4157 ****
 29 H      31.681000   32.047000   24.115000 H     4 SER     0.2719 ****
 30 CA     32.009000   34.152000   24.133000 C     4 SER    -0.0249 ****
 31 HA     31.275000   34.883000   24.476000 H     4 SER     0.0843 ****
 32 CB     33.389000   34.611000   24.620000 C     4 SER     0.2117 ****
 33 HB2    33.405000   34.601000   25.711000 H     4 SER     0.0352 ****
 34 HB3    34.153000   33.925000   24.250000 H     4 SER     0.0352 ****
 35 OG     33.671000   35.924000   24.173000 O     4 SER    -0.6546 ****
 36 HG     34.438000   36.250000   24.654000 H     4 SER     0.4275 ****
 37 C      31.939000   34.106000   22.598000 C     4 SER     0.5973 ****
 38 O      31.940000   33.025000   22.002000 O     4 SER    -0.5679 ****
 39 N      31.871000   35.273000   21.949000 N     5 NME    -0.4157 ****
 40 H      31.968000   36.108000   22.511000 H     5 NME     0.2719 ****
 41 CH3    31.776000   35.415000   20.498000 C     5 NME    -0.1490 ****
 42 HH31   30.860000   34.940000   20.140000 H     5 NME     0.0976 ****
 43 HH32   31.764000   36.471000   20.224000 H     5 NME     0.0976 ****
 44 HH33   32.631000   34.930000   20.023000 H     5 NME     0.0976 ****
@<TRIPOS>BOND
    1     5     6 1
    2     5     7 1
    3     2     3 1
    4     2     4 1
    5     2     5 1
    6     1     2 1
    7    16    17 1
    8    16    18 1
    9    14    15 1
   10    11    12 1
   11    11    13 1
   12    11    14 1
   13     9    10 1
   14     9    11 1
   15     9    16 1
   16     7     8 1
   17     7     9 1
   18    26    27 1
   19    26    28 1
   20    22    23 1
   21    22    24 1
   22    22    25 1
   23    20    21 1
   24    20    22 1
   25    20    26 1
   26    18    19 1
   27    18    20 1
   28    37    38 1
   29    37    39 1
   30    35    36 1
   31    32    33 1
   32    32    34 1
   33    32    35 1
   34    30    31 1
   35    30    32 1
   36    30    37 1
   37    28    29 1
   38    28    30 1
   39    41    42 1
   40    41    43 1
   41    41    44 1
   42    39    40 1
   43    39    41 1
@<TRIPOS>SUBSTRUCTURE
      1  ACE              1 ****               0 ****  **** 
      2  SER              7 ****               0 ****  **** 
      3  ALA             18 ****               0 ****  **** 
      4  SER             28 ****               0 ****  **** 
      5  NME             39 ****               0 ****  **** 
