@<TRIPOS>MOLECULE
default_name
   44    43     5     0     1 
SMALL
USER_CHARGES
@<TRIPOS>ATOM
  1 H1     26.729000   26.199000   21.633000 H     1 ACE     0.1123 ****
  2 CH3    26.592000   27.067000   22.276000 C     1 ACE    -0.3662 ****
  3 H2     26.244000   26.745000   23.256000 H     1 ACE     0.1123 ****
  4 H3     25.868000   27.744000   21.828000 H     1 ACE     0.1123 ****
  5 C      27.917000   27.778000   22.427000 C     1 ACE     0.5972 ****
  6 O      28.913000   27.352000   21.859000 O     1 ACE    -0.5679 ****
  7 N      27.924000   28.869000   23.189000 N     2 SER    -0.4157 ****
  8 H      27.069000   29.140000   23.654000 H     2 SER     0.2719 ****
  9 CA     29.122000   29.650000   23.523000 C     2 SER    -0.0249 ****
 10 HA     29.947000   28.965000   23.721000 H     2 SER     0.0843 ****
 11 CB     29.520000   30.545000   22.331000 C     2 SER     0.2117 ****
 12 HB2    29.638000   29.930000   21.437000 H     2 SER     0.0352 ****
 13 HB3    28.730000   31.276000   22.152000 H     2 SER     0.0352 ****
 14 OG     30.741000   31.222000   22.589000 O     2 SER    -0.6546 ****
 15 HG     30.844000   31.967000   21.970000 H     2 SER     0.4275 ****
 16 C      28.884000   30.494000   24.787000 C     2 SER     0.5973 ****
 17 O      27.762000   30.587000   25.283000 O     2 SER    -0.5679 ****
 18 N      29.934000   31.169000   25.250000 N     3 ALA    -0.4157 ****
 19 H      30.795000   31.036000   24.736000 H     3 ALA     0.2719 ****
 20 CA     29.921000   32.202000   26.288000 C     3 ALA     0.0337 ****
 21 HA     28.972000   32.739000   26.237000 H     3 ALA     0.0823 ****
 22 CB     30.025000   31.527000   27.664000 C     3 ALA    -0.1825 ****
 23 HB1    30.971000   30.992000   27.748000 H     3 ALA     0.0603 ****
 24 HB2    29.972000   32.283000   28.449000 H     3 ALA     0.0603 ****
 25 HB3    29.199000   30.827000   27.797000 H     3 ALA     0.0603 ****
 26 C      31.047000   33.233000   26.030000 C     3 ALA     0.5973 ****
 27 O      31.611000   33.823000   26.947000 O     3 ALA    -0.5679 ****
 28 N      31.373000   33.443000   24.749000 N     4 SER    -0.4157 ****
 29 H      30.867000   32.917000   24.046000 H     4 SER     0.2719 ****
 30 CA     32.329000   34.428000   24.233000 C     4 SER    -0.0249 ****
 31 HA     32.181000   35.373000   24.757000 H     4 SER     0.0843 ****
 32 CB     33.763000   33.953000   24.499000 C     4 SER     0.2117 ****
 33 HB2    33.881000   33.743000   25.563000 H     4 SER     0.0352 ****
 34 HB3    33.955000   33.038000   23.936000 H     4 SER     0.0352 ****
 35 OG     34.697000   34.948000   24.125000 O     4 SER    -0.6546 ****
 36 HG     35.564000   34.689000   24.455000 H     4 SER     0.4275 ****
 37 C      32.089000   34.664000   22.729000 C     4 SER     0.5973 ****
 38 O      31.376000   33.889000   22.082000 O     4 SER    -0.5679 ****
 39 N      32.669000   35.731000   22.171000 N     5 NME    -0.4157 ****
 40 H      33.311000   36.253000   22.753000 H     5 NME     0.2719 ****
 41 CH3    32.529000   36.115000   20.768000 C     5 NME    -0.1490 ****
 42 HH31   33.082000   37.035000   20.573000 H     5 NME     0.0976 ****
 43 HH32   32.918000   35.320000   20.128000 H     5 NME     0.0976 ****
 44 HH33   31.475000   36.271000   20.531000 H     5 NME     0.0976 ****
@<TRIPOS>BOND
    1     5     6 1
    2     5     7 1
    3     2     3 1
    4     2     4 1
    5     2     5 1
    6     1     2 1
    7    16    17 1
    8    16    18 1
    9    14    15 1
   10    11    12 1
   11    11    13 1
   12    11    14 1
   13     9    10 1
   14     9    11 1
   15     9    16 1
   16     7     8 1
   17     7     9 1
   18    26    27 1
   19    26    28 1
   20    22    23 1
   21    22    24 1
   22    22    25 1
   23    20    21 1
   24    20    22 1
   25    20    26 1
   26    18    19 1
   27    18    20 1
   28    37    38 1
   29    37    39 1
   30    35    36 1
   31    32    33 1
   32    32    34 1
   33    32    35 1
   34    30    31 1
   35    30    32 1
   36    30    37 1
   37    28    29 1
   38    28    30 1
   39    41    42 1
   40    41    43 1
   41    41    44 1
   42    39    40 1
   43    39    41 1
@<TRIPOS>SUBSTRUCTURE
      1  ACE              1 ****               0 ****  **** 
      2  SER              7 ****               0 ****  **** 
      3  ALA             18 ****               0 ****  **** 
      4  SER             28 ****               0 ****  **** 
      5  NME             39 ****               0 ****  **** 
