@<TRIPOS>MOLECULE
default_name
   44    43     5     0     1 
SMALL
USER_CHARGES
@<TRIPOS>ATOM
  1 H1     26.477000   27.177000   27.121000 H     1 ACE     0.1123 ****
  2 CH3    26.596000   28.063000   26.499000 C     1 ACE    -0.3662 ****
  3 H2     26.837000   28.919000   27.125000 H     1 ACE     0.1123 ****
  4 H3     25.675000   28.252000   25.951000 H     1 ACE     0.1123 ****
  5 C      27.722000   27.828000   25.520000 C     1 ACE     0.5972 ****
  6 O      28.326000   26.763000   25.517000 O     1 ACE    -0.5679 ****
  7 N      28.001000   28.821000   24.679000 N     2 SER    -0.4157 ****
  8 H      27.487000   29.687000   24.760000 H     2 SER     0.2719 ****
  9 CA     29.119000   28.812000   23.726000 C     2 SER    -0.0249 ****
 10 HA     29.994000   28.392000   24.224000 H     2 SER     0.0843 ****
 11 CB     28.775000   27.924000   22.522000 C     2 SER     0.2117 ****
 12 HB2    28.317000   26.994000   22.863000 H     2 SER     0.0352 ****
 13 HB3    28.068000   28.446000   21.875000 H     2 SER     0.0352 ****
 14 OG     29.949000   27.612000   21.798000 O     2 SER    -0.6546 ****
 15 HG     30.292000   26.778000   22.137000 H     2 SER     0.4275 ****
 16 C      29.469000   30.239000   23.275000 C     2 SER     0.5973 ****
 17 O      28.776000   31.185000   23.646000 O     2 SER    -0.5679 ****
 18 N      30.552000   30.387000   22.506000 N     3 ALA    -0.4157 ****
 19 H      31.024000   29.534000   22.240000 H     3 ALA     0.2719 ****
 20 CA     31.069000   31.633000   21.928000 C     3 ALA     0.0337 ****
 21 HA     31.739000   31.311000   21.130000 H     3 ALA     0.0823 ****
 22 CB     29.985000   32.451000   21.197000 C     3 ALA    -0.1825 ****
 23 HB1    30.455000   33.221000   20.584000 H     3 ALA     0.0603 ****
 24 HB2    29.403000   31.796000   20.547000 H     3 ALA     0.0603 ****
 25 HB3    29.315000   32.932000   21.910000 H     3 ALA     0.0603 ****
 26 C      32.008000   32.384000   22.894000 C     3 ALA     0.5973 ****
 27 O      32.916000   31.781000   23.463000 O     3 ALA    -0.5679 ****
 28 N      31.820000   33.695000   23.069000 N     4 SER    -0.4157 ****
 29 H      31.029000   34.133000   22.616000 H     4 SER     0.2719 ****
 30 CA     32.559000   34.526000   24.028000 C     4 SER    -0.0249 ****
 31 HA     32.651000   33.975000   24.964000 H     4 SER     0.0843 ****
 32 CB     33.969000   34.822000   23.498000 C     4 SER     0.2117 ****
 33 HB2    34.407000   33.917000   23.075000 H     4 SER     0.0352 ****
 34 HB3    33.912000   35.582000   22.717000 H     4 SER     0.0352 ****
 35 OG     34.796000   35.276000   24.552000 O     4 SER    -0.6546 ****
 36 HG     35.254000   34.512000   24.918000 H     4 SER     0.4275 ****
 37 C      31.802000   35.833000   24.317000 C     4 SER     0.5973 ****
 38 O      30.801000   36.123000   23.662000 O     4 SER    -0.5679 ****
 39 N      32.274000   36.620000   25.290000 N     5 NME    -0.4157 ****
 40 H      33.155000   36.351000   25.707000 H     5 NME     0.2719 ****
 41 CH3    31.663000   37.882000   25.701000 C     5 NME    -0.1490 ****
 42 HH31   30.635000   37.706000   26.025000 H     5 NME     0.0976 ****
 43 HH32   32.229000   38.325000   26.521000 H     5 NME     0.0976 ****
 44 HH33   31.649000   38.575000   24.858000 H     5 NME     0.0976 ****
@<TRIPOS>BOND
    1     5     6 1
    2     5     7 1
    3     2     3 1
    4     2     4 1
    5     2     5 1
    6     1     2 1
    7    16    17 1
    8    16    18 1
    9    14    15 1
   10    11    12 1
   11    11    13 1
   12    11    14 1
   13     9    10 1
   14     9    11 1
   15     9    16 1
   16     7     8 1
   17     7     9 1
   18    26    27 1
   19    26    28 1
   20    22    23 1
   21    22    24 1
   22    22    25 1
   23    20    21 1
   24    20    22 1
   25    20    26 1
   26    18    19 1
   27    18    20 1
   28    37    38 1
   29    37    39 1
   30    35    36 1
   31    32    33 1
   32    32    34 1
   33    32    35 1
   34    30    31 1
   35    30    32 1
   36    30    37 1
   37    28    29 1
   38    28    30 1
   39    41    42 1
   40    41    43 1
   41    41    44 1
   42    39    40 1
   43    39    41 1
@<TRIPOS>SUBSTRUCTURE
      1  ACE              1 ****               0 ****  **** 
      2  SER              7 ****               0 ****  **** 
      3  ALA             18 ****               0 ****  **** 
      4  SER             28 ****               0 ****  **** 
      5  NME             39 ****               0 ****  **** 
