@<TRIPOS>MOLECULE
default_name
   44    43     5     0     1 
SMALL
USER_CHARGES
@<TRIPOS>ATOM
  1 H1     27.343000   32.375000   22.021000 H     1 ACE     0.1123 ****
  2 CH3    27.928000   31.494000   21.759000 C     1 ACE    -0.3662 ****
  3 H2     28.846000   31.815000   21.271000 H     1 ACE     0.1123 ****
  4 H3     27.350000   30.856000   21.093000 H     1 ACE     0.1123 ****
  5 C      28.258000   30.738000   23.023000 C     1 ACE     0.5972 ****
  6 O      27.810000   31.102000   24.100000 O     1 ACE    -0.5679 ****
  7 N      29.063000   29.682000   22.896000 N     2 SER    -0.4157 ****
  8 H      29.389000   29.459000   21.969000 H     2 SER     0.2719 ****
  9 CA     29.332000   28.710000   23.976000 C     2 SER    -0.0249 ****
 10 HA     28.372000   28.462000   24.433000 H     2 SER     0.0843 ****
 11 CB     29.892000   27.418000   23.366000 C     2 SER     0.2117 ****
 12 HB2    29.274000   27.116000   22.519000 H     2 SER     0.0352 ****
 13 HB3    30.911000   27.591000   23.017000 H     2 SER     0.0352 ****
 14 OG     29.890000   26.375000   24.315000 O     2 SER    -0.6546 ****
 15 HG     30.275000   26.724000   25.136000 H     2 SER     0.4275 ****
 16 C      30.240000   29.202000   25.126000 C     2 SER     0.5973 ****
 17 O      30.558000   28.408000   26.008000 O     2 SER    -0.5679 ****
 18 N      30.647000   30.480000   25.116000 N     3 ALA    -0.4157 ****
 19 H      30.275000   31.031000   24.364000 H     3 ALA     0.2719 ****
 20 CA     31.576000   31.162000   26.043000 C     3 ALA     0.0337 ****
 21 HA     31.091000   31.286000   27.012000 H     3 ALA     0.0823 ****
 22 CB     32.863000   30.322000   26.218000 C     3 ALA    -0.1825 ****
 23 HB1    33.316000   30.118000   25.247000 H     3 ALA     0.0603 ****
 24 HB2    33.581000   30.858000   26.839000 H     3 ALA     0.0603 ****
 25 HB3    32.653000   29.383000   26.727000 H     3 ALA     0.0603 ****
 26 C      31.998000   32.567000   25.526000 C     3 ALA     0.5973 ****
 27 O      32.970000   33.146000   26.005000 O     3 ALA    -0.5679 ****
 28 N      31.279000   33.139000   24.552000 N     4 SER    -0.4157 ****
 29 H      30.432000   32.689000   24.236000 H     4 SER     0.2719 ****
 30 CA     31.520000   34.480000   23.997000 C     4 SER    -0.0249 ****
 31 HA     31.644000   35.186000   24.818000 H     4 SER     0.0843 ****
 32 CB     32.800000   34.492000   23.150000 C     4 SER     0.2117 ****
 33 HB2    33.639000   34.141000   23.752000 H     4 SER     0.0352 ****
 34 HB3    32.678000   33.828000   22.293000 H     4 SER     0.0352 ****
 35 OG     33.082000   35.803000   22.700000 O     4 SER    -0.6546 ****
 36 HG     33.971000   35.814000   22.330000 H     4 SER     0.4275 ****
 37 C      30.318000   34.920000   23.150000 C     4 SER     0.5973 ****
 38 O      29.557000   34.070000   22.687000 O     4 SER    -0.5679 ****
 39 N      30.146000   36.230000   22.943000 N     5 NME    -0.4157 ****
 40 H      30.872000   36.845000   23.282000 H     5 NME     0.2719 ****
 41 CH3    29.041000   36.808000   22.182000 C     5 NME    -0.1490 ****
 42 HH31   29.087000   36.463000   21.148000 H     5 NME     0.0976 ****
 43 HH32   28.090000   36.490000   22.615000 H     5 NME     0.0976 ****
 44 HH33   29.099000   37.897000   22.201000 H     5 NME     0.0976 ****
@<TRIPOS>BOND
    1     5     6 1
    2     5     7 1
    3     2     3 1
    4     2     4 1
    5     2     5 1
    6     1     2 1
    7    16    17 1
    8    16    18 1
    9    14    15 1
   10    11    12 1
   11    11    13 1
   12    11    14 1
   13     9    10 1
   14     9    11 1
   15     9    16 1
   16     7     8 1
   17     7     9 1
   18    26    27 1
   19    26    28 1
   20    22    23 1
   21    22    24 1
   22    22    25 1
   23    20    21 1
   24    20    22 1
   25    20    26 1
   26    18    19 1
   27    18    20 1
   28    37    38 1
   29    37    39 1
   30    35    36 1
   31    32    33 1
   32    32    34 1
   33    32    35 1
   34    30    31 1
   35    30    32 1
   36    30    37 1
   37    28    29 1
   38    28    30 1
   39    41    42 1
   40    41    43 1
   41    41    44 1
   42    39    40 1
   43    39    41 1
@<TRIPOS>SUBSTRUCTURE
      1  ACE              1 ****               0 ****  **** 
      2  SER              7 ****               0 ****  **** 
      3  ALA             18 ****               0 ****  **** 
      4  SER             28 ****               0 ****  **** 
      5  NME             39 ****               0 ****  **** 
