@<TRIPOS>MOLECULE
default_name
   44    43     5     0     1 
SMALL
USER_CHARGES
@<TRIPOS>ATOM
  1 H1     26.442000   26.342000   21.874000 H     1 ACE     0.1123 ****
  2 CH3    26.382000   27.254000   22.466000 C     1 ACE    -0.3662 ****
  3 H2     26.005000   27.021000   23.460000 H     1 ACE     0.1123 ****
  4 H3     25.723000   27.967000   21.975000 H     1 ACE     0.1123 ****
  5 C      27.765000   27.851000   22.585000 C     1 ACE     0.5972 ****
  6 O      28.719000   27.304000   22.048000 O     1 ACE    -0.5679 ****
  7 N      27.868000   28.977000   23.287000 N     2 SER    -0.4157 ****
  8 H      27.041000   29.334000   23.744000 H     2 SER     0.2719 ****
  9 CA     29.132000   29.654000   23.609000 C     2 SER    -0.0249 ****
 10 HA     29.876000   28.902000   23.873000 H     2 SER     0.0843 ****
 11 CB     29.654000   30.419000   22.373000 C     2 SER     0.2117 ****
 12 HB2    29.647000   29.760000   21.504000 H     2 SER     0.0352 ****
 13 HB3    29.002000   31.271000   22.173000 H     2 SER     0.0352 ****
 14 OG     30.984000   30.872000   22.587000 O     2 SER    -0.6546 ****
 15 HG     31.102000   31.752000   22.179000 H     2 SER     0.4275 ****
 16 C      28.945000   30.584000   24.824000 C     2 SER     0.5973 ****
 17 O      27.899000   30.578000   25.470000 O     2 SER    -0.5679 ****
 18 N      29.952000   31.408000   25.103000 N     3 ALA    -0.4157 ****
 19 H      30.724000   31.361000   24.451000 H     3 ALA     0.2719 ****
 20 CA     29.998000   32.435000   26.143000 C     3 ALA     0.0337 ****
 21 HA     28.998000   32.849000   26.288000 H     3 ALA     0.0823 ****
 22 CB     30.465000   31.800000   27.460000 C     3 ALA    -0.1825 ****
 23 HB1    31.453000   31.356000   27.341000 H     3 ALA     0.0603 ****
 24 HB2    30.505000   32.563000   28.238000 H     3 ALA     0.0603 ****
 25 HB3    29.758000   31.027000   27.765000 H     3 ALA     0.0603 ****
 26 C      30.920000   33.583000   25.692000 C     3 ALA     0.5973 ****
 27 O      30.546000   34.749000   25.761000 O     3 ALA    -0.5679 ****
 28 N      32.101000   33.251000   25.153000 N     4 SER    -0.4157 ****
 29 H      32.358000   32.278000   25.140000 H     4 SER     0.2719 ****
 30 CA     32.869000   34.179000   24.313000 C     4 SER    -0.0249 ****
 31 HA     32.969000   35.127000   24.843000 H     4 SER     0.0843 ****
 32 CB     34.276000   33.625000   24.070000 C     4 SER     0.2117 ****
 33 HB2    34.783000   33.511000   25.030000 H     4 SER     0.0352 ****
 34 HB3    34.211000   32.649000   23.587000 H     4 SER     0.0352 ****
 35 OG     35.026000   34.504000   23.256000 O     4 SER    -0.6546 ****
 36 HG     34.918000   34.249000   22.334000 H     4 SER     0.4275 ****
 37 C      32.149000   34.439000   22.980000 C     4 SER     0.5973 ****
 38 O      31.649000   33.502000   22.350000 O     4 SER    -0.5679 ****
 39 N      32.131000   35.698000   22.528000 N     5 NME    -0.4157 ****
 40 H      32.567000   36.405000   23.101000 H     5 NME     0.2719 ****
 41 CH3    31.485000   36.118000   21.286000 C     5 NME    -0.1490 ****
 42 HH31   30.409000   35.949000   21.357000 H     5 NME     0.0976 ****
 43 HH32   31.670000   37.178000   21.107000 H     5 NME     0.0976 ****
 44 HH33   31.877000   35.538000   20.448000 H     5 NME     0.0976 ****
@<TRIPOS>BOND
    1     5     6 1
    2     5     7 1
    3     2     3 1
    4     2     4 1
    5     2     5 1
    6     1     2 1
    7    16    17 1
    8    16    18 1
    9    14    15 1
   10    11    12 1
   11    11    13 1
   12    11    14 1
   13     9    10 1
   14     9    11 1
   15     9    16 1
   16     7     8 1
   17     7     9 1
   18    26    27 1
   19    26    28 1
   20    22    23 1
   21    22    24 1
   22    22    25 1
   23    20    21 1
   24    20    22 1
   25    20    26 1
   26    18    19 1
   27    18    20 1
   28    37    38 1
   29    37    39 1
   30    35    36 1
   31    32    33 1
   32    32    34 1
   33    32    35 1
   34    30    31 1
   35    30    32 1
   36    30    37 1
   37    28    29 1
   38    28    30 1
   39    41    42 1
   40    41    43 1
   41    41    44 1
   42    39    40 1
   43    39    41 1
@<TRIPOS>SUBSTRUCTURE
      1  ACE              1 ****               0 ****  **** 
      2  SER              7 ****               0 ****  **** 
      3  ALA             18 ****               0 ****  **** 
      4  SER             28 ****               0 ****  **** 
      5  NME             39 ****               0 ****  **** 
