@<TRIPOS>MOLECULE
default_name
   44    43     5     0     1 
SMALL
USER_CHARGES
@<TRIPOS>ATOM
  1 H1     26.557000   25.634000   22.960000 H     1 ACE     0.1123 ****
  2 CH3    26.426000   26.680000   23.232000 C     1 ACE    -0.3662 ****
  3 H2     26.023000   26.747000   24.241000 H     1 ACE     0.1123 ****
  4 H3     25.747000   27.159000   22.529000 H     1 ACE     0.1123 ****
  5 C      27.768000   27.371000   23.184000 C     1 ACE     0.5972 ****
  6 O      28.772000   26.747000   22.866000 O     1 ACE    -0.5679 ****
  7 N      27.785000   28.665000   23.492000 N     2 SER    -0.4157 ****
  8 H      26.922000   29.105000   23.780000 H     2 SER     0.2719 ****
  9 CA     29.001000   29.483000   23.597000 C     2 SER    -0.0249 ****
 10 HA     29.771000   28.899000   24.104000 H     2 SER     0.0843 ****
 11 CB     29.523000   29.834000   22.192000 C     2 SER     0.2117 ****
 12 HB2    29.644000   28.914000   21.618000 H     2 SER     0.0352 ****
 13 HB3    28.796000   30.469000   21.683000 H     2 SER     0.0352 ****
 14 OG     30.778000   30.499000   22.248000 O     2 SER    -0.6546 ****
 15 HG     31.152000   30.490000   21.359000 H     2 SER     0.4275 ****
 16 C      28.736000   30.744000   24.436000 C     2 SER     0.5973 ****
 17 O      27.604000   31.005000   24.839000 O     2 SER    -0.5679 ****
 18 N      29.785000   31.531000   24.672000 N     3 ALA    -0.4157 ****
 19 H      30.645000   31.228000   24.240000 H     3 ALA     0.2719 ****
 20 CA     29.807000   32.729000   25.518000 C     3 ALA     0.0337 ****
 21 HA     28.921000   33.329000   25.307000 H     3 ALA     0.0823 ****
 22 CB     29.763000   32.282000   26.989000 C     3 ALA    -0.1825 ****
 23 HB1    30.638000   31.677000   27.226000 H     3 ALA     0.0603 ****
 24 HB2    29.750000   33.159000   27.639000 H     3 ALA     0.0603 ****
 25 HB3    28.859000   31.702000   27.178000 H     3 ALA     0.0603 ****
 26 C      31.047000   33.623000   25.271000 C     3 ALA     0.5973 ****
 27 O      31.180000   34.675000   25.890000 O     3 ALA    -0.5679 ****
 28 N      31.962000   33.224000   24.375000 N     4 SER    -0.4157 ****
 29 H      31.774000   32.390000   23.843000 H     4 SER     0.2719 ****
 30 CA     33.153000   34.001000   24.002000 C     4 SER    -0.0249 ****
 31 HA     33.546000   34.503000   24.886000 H     4 SER     0.0843 ****
 32 CB     34.240000   33.043000   23.496000 C     4 SER     0.2117 ****
 33 HB2    34.550000   32.388000   24.312000 H     4 SER     0.0352 ****
 34 HB3    33.845000   32.432000   22.683000 H     4 SER     0.0352 ****
 35 OG     35.360000   33.764000   23.029000 O     4 SER    -0.6546 ****
 36 HG     35.098000   34.202000   22.208000 H     4 SER     0.4275 ****
 37 C      32.815000   35.075000   22.956000 C     4 SER     0.5973 ****
 38 O      32.971000   34.843000   21.757000 O     4 SER    -0.5679 ****
 39 N      32.352000   36.247000   23.405000 N     5 NME    -0.4157 ****
 40 H      32.231000   36.355000   24.402000 H     5 NME     0.2719 ****
 41 CH3    31.983000   37.370000   22.545000 C     5 NME    -0.1490 ****
 42 HH31   31.224000   37.051000   21.828000 H     5 NME     0.0976 ****
 43 HH32   31.586000   38.189000   23.146000 H     5 NME     0.0976 ****
 44 HH33   32.859000   37.718000   21.995000 H     5 NME     0.0976 ****
@<TRIPOS>BOND
    1     5     6 1
    2     5     7 1
    3     2     3 1
    4     2     4 1
    5     2     5 1
    6     1     2 1
    7    16    17 1
    8    16    18 1
    9    14    15 1
   10    11    12 1
   11    11    13 1
   12    11    14 1
   13     9    10 1
   14     9    11 1
   15     9    16 1
   16     7     8 1
   17     7     9 1
   18    26    27 1
   19    26    28 1
   20    22    23 1
   21    22    24 1
   22    22    25 1
   23    20    21 1
   24    20    22 1
   25    20    26 1
   26    18    19 1
   27    18    20 1
   28    37    38 1
   29    37    39 1
   30    35    36 1
   31    32    33 1
   32    32    34 1
   33    32    35 1
   34    30    31 1
   35    30    32 1
   36    30    37 1
   37    28    29 1
   38    28    30 1
   39    41    42 1
   40    41    43 1
   41    41    44 1
   42    39    40 1
   43    39    41 1
@<TRIPOS>SUBSTRUCTURE
      1  ACE              1 ****               0 ****  **** 
      2  SER              7 ****               0 ****  **** 
      3  ALA             18 ****               0 ****  **** 
      4  SER             28 ****               0 ****  **** 
      5  NME             39 ****               0 ****  **** 
