@<TRIPOS>MOLECULE
default_name
   44    43     5     0     1 
SMALL
USER_CHARGES
@<TRIPOS>ATOM
  1 H1     26.097000   27.258000   21.750000 H     1 ACE     0.1123 ****
  2 CH3    26.205000   28.272000   22.134000 C     1 ACE    -0.3662 ****
  3 H2     25.540000   28.412000   22.984000 H     1 ACE     0.1123 ****
  4 H3     25.963000   28.987000   21.351000 H     1 ACE     0.1123 ****
  5 C      27.634000   28.478000   22.577000 C     1 ACE     0.5972 ****
  6 O      28.450000   27.573000   22.468000 O     1 ACE    -0.5679 ****
  7 N      27.938000   29.673000   23.077000 N     2 SER    -0.4157 ****
  8 H      27.211000   30.370000   23.147000 H     2 SER     0.2719 ****
  9 CA     29.265000   30.051000   23.578000 C     2 SER    -0.0249 ****
 10 HA     29.714000   29.195000   24.084000 H     2 SER     0.0843 ****
 11 CB     30.171000   30.448000   22.403000 C     2 SER     0.2117 ****
 12 HB2    30.302000   29.593000   21.737000 H     2 SER     0.0352 ****
 13 HB3    29.694000   31.257000   21.847000 H     2 SER     0.0352 ****
 14 OG     31.437000   30.889000   22.859000 O     2 SER    -0.6546 ****
 15 HG     31.753000   31.562000   22.228000 H     2 SER     0.4275 ****
 16 C      29.162000   31.214000   24.568000 C     2 SER     0.5973 ****
 17 O      28.295000   32.074000   24.419000 O     2 SER    -0.5679 ****
 18 N      30.079000   31.275000   25.538000 N     3 ALA    -0.4157 ****
 19 H      30.742000   30.520000   25.605000 H     3 ALA     0.2719 ****
 20 CA     30.278000   32.453000   26.391000 C     3 ALA     0.0337 ****
 21 HA     29.338000   33.000000   26.489000 H     3 ALA     0.0823 ****
 22 CB     30.703000   31.968000   27.782000 C     3 ALA    -0.1825 ****
 23 HB1    31.647000   31.426000   27.723000 H     3 ALA     0.0603 ****
 24 HB2    30.827000   32.828000   28.442000 H     3 ALA     0.0603 ****
 25 HB3    29.934000   31.316000   28.198000 H     3 ALA     0.0603 ****
 26 C      31.319000   33.423000   25.790000 C     3 ALA     0.5973 ****
 27 O      31.274000   34.623000   26.044000 O     3 ALA    -0.5679 ****
 28 N      32.219000   32.919000   24.938000 N     4 SER    -0.4157 ****
 29 H      32.144000   31.936000   24.717000 H     4 SER     0.2719 ****
 30 CA     33.029000   33.734000   24.028000 C     4 SER    -0.0249 ****
 31 HA     33.309000   34.668000   24.517000 H     4 SER     0.0843 ****
 32 CB     34.319000   32.984000   23.673000 C     4 SER     0.2117 ****
 33 HB2    34.929000   32.878000   24.570000 H     4 SER     0.0352 ****
 34 HB3    34.079000   31.991000   23.290000 H     4 SER     0.0352 ****
 35 OG     35.049000   33.694000   22.695000 O     4 SER    -0.6546 ****
 36 HG     34.587000   33.598000   21.853000 H     4 SER     0.4275 ****
 37 C      32.192000   34.064000   22.786000 C     4 SER     0.5973 ****
 38 O      32.239000   33.332000   21.792000 O     4 SER    -0.5679 ****
 39 N      31.379000   35.121000   22.872000 N     5 NME    -0.4157 ****
 40 H      31.351000   35.614000   23.755000 H     5 NME     0.2719 ****
 41 CH3    30.463000   35.547000   21.816000 C     5 NME    -0.1490 ****
 42 HH31   29.665000   34.810000   21.702000 H     5 NME     0.0976 ****
 43 HH32   30.023000   36.513000   22.070000 H     5 NME     0.0976 ****
 44 HH33   31.000000   35.635000   20.870000 H     5 NME     0.0976 ****
@<TRIPOS>BOND
    1     5     6 1
    2     5     7 1
    3     2     3 1
    4     2     4 1
    5     2     5 1
    6     1     2 1
    7    16    17 1
    8    16    18 1
    9    14    15 1
   10    11    12 1
   11    11    13 1
   12    11    14 1
   13     9    10 1
   14     9    11 1
   15     9    16 1
   16     7     8 1
   17     7     9 1
   18    26    27 1
   19    26    28 1
   20    22    23 1
   21    22    24 1
   22    22    25 1
   23    20    21 1
   24    20    22 1
   25    20    26 1
   26    18    19 1
   27    18    20 1
   28    37    38 1
   29    37    39 1
   30    35    36 1
   31    32    33 1
   32    32    34 1
   33    32    35 1
   34    30    31 1
   35    30    32 1
   36    30    37 1
   37    28    29 1
   38    28    30 1
   39    41    42 1
   40    41    43 1
   41    41    44 1
   42    39    40 1
   43    39    41 1
@<TRIPOS>SUBSTRUCTURE
      1  ACE              1 ****               0 ****  **** 
      2  SER              7 ****               0 ****  **** 
      3  ALA             18 ****               0 ****  **** 
      4  SER             28 ****               0 ****  **** 
      5  NME             39 ****               0 ****  **** 
