@<TRIPOS>MOLECULE
default_name
   44    43     5     0     1 
SMALL
USER_CHARGES
@<TRIPOS>ATOM
  1 H1     26.813000   26.043000   26.668000 H     1 ACE     0.1123 ****
  2 CH3    26.625000   26.890000   26.009000 C     1 ACE    -0.3662 ****
  3 H2     26.311000   27.749000   26.598000 H     1 ACE     0.1123 ****
  4 H3     25.850000   26.629000   25.291000 H     1 ACE     0.1123 ****
  5 C      27.898000   27.228000   25.271000 C     1 ACE     0.5972 ****
  6 O      28.916000   26.575000   25.463000 O     1 ACE    -0.5679 ****
  7 N      27.842000   28.247000   24.417000 N     2 SER    -0.4157 ****
  8 H      26.978000   28.764000   24.329000 H     2 SER     0.2719 ****
  9 CA     28.995000   28.773000   23.674000 C     2 SER    -0.0249 ****
 10 HA     29.858000   28.788000   24.340000 H     2 SER     0.0843 ****
 11 CB     29.315000   27.852000   22.490000 C     2 SER     0.2117 ****
 12 HB2    29.295000   26.810000   22.812000 H     2 SER     0.0352 ****
 13 HB3    28.567000   27.992000   21.708000 H     2 SER     0.0352 ****
 14 OG     30.601000   28.144000   21.978000 O     2 SER    -0.6546 ****
 15 HG     31.241000   27.596000   22.445000 H     2 SER     0.4275 ****
 16 C      28.737000   30.214000   23.200000 C     2 SER     0.5973 ****
 17 O      27.605000   30.684000   23.306000 O     2 SER    -0.5679 ****
 18 N      29.790000   30.870000   22.694000 N     3 ALA    -0.4157 ****
 19 H      30.628000   30.305000   22.621000 H     3 ALA     0.2719 ****
 20 CA     29.991000   32.268000   22.265000 C     3 ALA     0.0337 ****
 21 HA     30.080000   32.283000   21.179000 H     3 ALA     0.0823 ****
 22 CB     28.814000   33.192000   22.651000 C     3 ALA    -0.1825 ****
 23 HB1    28.666000   33.189000   23.732000 H     3 ALA     0.0603 ****
 24 HB2    28.999000   34.212000   22.313000 H     3 ALA     0.0603 ****
 25 HB3    27.901000   32.858000   22.158000 H     3 ALA     0.0603 ****
 26 C      31.344000   32.759000   22.840000 C     3 ALA     0.5973 ****
 27 O      32.269000   31.961000   22.999000 O     3 ALA    -0.5679 ****
 28 N      31.491000   34.051000   23.150000 N     4 SER    -0.4157 ****
 29 H      30.694000   34.667000   23.052000 H     4 SER     0.2719 ****
 30 CA     32.677000   34.632000   23.793000 C     4 SER    -0.0249 ****
 31 HA     33.017000   33.952000   24.575000 H     4 SER     0.0843 ****
 32 CB     33.807000   34.795000   22.768000 C     4 SER     0.2117 ****
 33 HB2    33.883000   33.899000   22.150000 H     4 SER     0.0352 ****
 34 HB3    33.592000   35.649000   22.123000 H     4 SER     0.0352 ****
 35 OG     35.040000   34.993000   23.433000 O     4 SER    -0.6546 ****
 36 HG     35.472000   34.136000   23.518000 H     4 SER     0.4275 ****
 37 C      32.333000   35.978000   24.453000 C     4 SER     0.5973 ****
 38 O      31.211000   36.463000   24.311000 O     4 SER    -0.5679 ****
 39 N      33.286000   36.578000   25.175000 N     5 NME    -0.4157 ****
 40 H      34.205000   36.154000   25.157000 H     5 NME     0.2719 ****
 41 CH3    33.115000   37.846000   25.879000 C     5 NME    -0.1490 ****
 42 HH31   32.304000   37.759000   26.605000 H     5 NME     0.0976 ****
 43 HH32   34.036000   38.116000   26.398000 H     5 NME     0.0976 ****
 44 HH33   32.860000   38.632000   25.166000 H     5 NME     0.0976 ****
@<TRIPOS>BOND
    1     5     6 1
    2     5     7 1
    3     2     3 1
    4     2     4 1
    5     2     5 1
    6     1     2 1
    7    16    17 1
    8    16    18 1
    9    14    15 1
   10    11    12 1
   11    11    13 1
   12    11    14 1
   13     9    10 1
   14     9    11 1
   15     9    16 1
   16     7     8 1
   17     7     9 1
   18    26    27 1
   19    26    28 1
   20    22    23 1
   21    22    24 1
   22    22    25 1
   23    20    21 1
   24    20    22 1
   25    20    26 1
   26    18    19 1
   27    18    20 1
   28    37    38 1
   29    37    39 1
   30    35    36 1
   31    32    33 1
   32    32    34 1
   33    32    35 1
   34    30    31 1
   35    30    32 1
   36    30    37 1
   37    28    29 1
   38    28    30 1
   39    41    42 1
   40    41    43 1
   41    41    44 1
   42    39    40 1
   43    39    41 1
@<TRIPOS>SUBSTRUCTURE
      1  ACE              1 ****               0 ****  **** 
      2  SER              7 ****               0 ****  **** 
      3  ALA             18 ****               0 ****  **** 
      4  SER             28 ****               0 ****  **** 
      5  NME             39 ****               0 ****  **** 
