@<TRIPOS>MOLECULE
default_name
   44    43     5     0     1 
SMALL
USER_CHARGES
@<TRIPOS>ATOM
  1 H1     26.923000   30.178000   20.499000 H     1 ACE     0.1123 ****
  2 CH3    27.868000   30.087000   21.033000 C     1 ACE    -0.3662 ****
  3 H2     28.323000   31.071000   21.137000 H     1 ACE     0.1123 ****
  4 H3     28.534000   29.423000   20.486000 H     1 ACE     0.1123 ****
  5 C      27.600000   29.511000   22.403000 C     1 ACE     0.5972 ****
  6 O      26.464000   29.198000   22.728000 O     1 ACE    -0.5679 ****
  7 N      28.654000   29.379000   23.206000 N     2 SER    -0.4157 ****
  8 H      29.553000   29.656000   22.841000 H     2 SER     0.2719 ****
  9 CA     28.597000   28.842000   24.581000 C     2 SER    -0.0249 ****
 10 HA     27.606000   29.053000   24.987000 H     2 SER     0.0843 ****
 11 CB     28.759000   27.314000   24.547000 C     2 SER     0.2117 ****
 12 HB2    28.011000   26.887000   23.877000 H     2 SER     0.0352 ****
 13 HB3    29.752000   27.063000   24.173000 H     2 SER     0.0352 ****
 14 OG     28.589000   26.757000   25.833000 O     2 SER    -0.6546 ****
 15 HG     29.186000   27.236000   26.430000 H     2 SER     0.4275 ****
 16 C      29.609000   29.526000   25.524000 C     2 SER     0.5973 ****
 17 O      30.043000   28.939000   26.514000 O     2 SER    -0.5679 ****
 18 N      29.994000   30.759000   25.176000 N     3 ALA    -0.4157 ****
 19 H      29.529000   31.142000   24.364000 H     3 ALA     0.2719 ****
 20 CA     31.104000   31.593000   25.659000 C     3 ALA     0.0337 ****
 21 HA     30.788000   32.171000   26.528000 H     3 ALA     0.0823 ****
 22 CB     32.344000   30.744000   26.010000 C     3 ALA    -0.1825 ****
 23 HB1    32.593000   30.079000   25.182000 H     3 ALA     0.0603 ****
 24 HB2    33.199000   31.388000   26.217000 H     3 ALA     0.0603 ****
 25 HB3    32.157000   30.153000   26.907000 H     3 ALA     0.0603 ****
 26 C      31.503000   32.556000   24.518000 C     3 ALA     0.5973 ****
 27 O      31.115000   32.348000   23.366000 O     3 ALA    -0.5679 ****
 28 N      32.305000   33.582000   24.834000 N     4 SER    -0.4157 ****
 29 H      32.582000   33.667000   25.798000 H     4 SER     0.2719 ****
 30 CA     32.559000   34.745000   23.962000 C     4 SER    -0.0249 ****
 31 HA     33.210000   35.424000   24.511000 H     4 SER     0.0843 ****
 32 CB     33.344000   34.312000   22.711000 C     4 SER     0.2117 ****
 33 HB2    34.146000   33.635000   23.009000 H     4 SER     0.0352 ****
 34 HB3    32.682000   33.789000   22.019000 H     4 SER     0.0352 ****
 35 OG     33.915000   35.431000   22.057000 O     4 SER    -0.6546 ****
 36 HG     34.451000   35.113000   21.323000 H     4 SER     0.4275 ****
 37 C      31.277000   35.548000   23.648000 C     4 SER     0.5973 ****
 38 O      30.226000   35.306000   24.242000 O     4 SER    -0.5679 ****
 39 N      31.371000   36.548000   22.765000 N     5 NME    -0.4157 ****
 40 H      32.271000   36.669000   22.315000 H     5 NME     0.2719 ****
 41 CH3    30.267000   37.424000   22.379000 C     5 NME    -0.1490 ****
 42 HH31   29.893000   37.953000   23.258000 H     5 NME     0.0976 ****
 43 HH32   30.602000   38.149000   21.636000 H     5 NME     0.0976 ****
 44 HH33   29.454000   36.827000   21.961000 H     5 NME     0.0976 ****
@<TRIPOS>BOND
    1     5     6 1
    2     5     7 1
    3     2     3 1
    4     2     4 1
    5     2     5 1
    6     1     2 1
    7    16    17 1
    8    16    18 1
    9    14    15 1
   10    11    12 1
   11    11    13 1
   12    11    14 1
   13     9    10 1
   14     9    11 1
   15     9    16 1
   16     7     8 1
   17     7     9 1
   18    26    27 1
   19    26    28 1
   20    22    23 1
   21    22    24 1
   22    22    25 1
   23    20    21 1
   24    20    22 1
   25    20    26 1
   26    18    19 1
   27    18    20 1
   28    37    38 1
   29    37    39 1
   30    35    36 1
   31    32    33 1
   32    32    34 1
   33    32    35 1
   34    30    31 1
   35    30    32 1
   36    30    37 1
   37    28    29 1
   38    28    30 1
   39    41    42 1
   40    41    43 1
   41    41    44 1
   42    39    40 1
   43    39    41 1
@<TRIPOS>SUBSTRUCTURE
      1  ACE              1 ****               0 ****  **** 
      2  SER              7 ****               0 ****  **** 
      3  ALA             18 ****               0 ****  **** 
      4  SER             28 ****               0 ****  **** 
      5  NME             39 ****               0 ****  **** 
