@<TRIPOS>MOLECULE
default_name
   44    43     5     0     1 
SMALL
USER_CHARGES
@<TRIPOS>ATOM
  1 H1     25.929000   25.677000   22.316000 H     1 ACE     0.1123 ****
  2 CH3    26.291000   26.695000   22.174000 C     1 ACE    -0.3662 ****
  3 H2     25.463000   27.394000   22.278000 H     1 ACE     0.1123 ****
  4 H3     26.738000   26.790000   21.187000 H     1 ACE     0.1123 ****
  5 C      27.332000   26.994000   23.227000 C     1 ACE     0.5972 ****
  6 O      27.639000   26.142000   24.049000 O     1 ACE    -0.5679 ****
  7 N      27.878000   28.207000   23.194000 N     2 SER    -0.4157 ****
  8 H      27.547000   28.868000   22.506000 H     2 SER     0.2719 ****
  9 CA     28.840000   28.725000   24.177000 C     2 SER    -0.0249 ****
 10 HA     28.530000   28.411000   25.174000 H     2 SER     0.0843 ****
 11 CB     30.234000   28.139000   23.907000 C     2 SER     0.2117 ****
 12 HB2    30.165000   27.052000   23.838000 H     2 SER     0.0352 ****
 13 HB3    30.614000   28.531000   22.962000 H     2 SER     0.0352 ****
 14 OG     31.126000   28.473000   24.955000 O     2 SER    -0.6546 ****
 15 HG     32.016000   28.218000   24.693000 H     2 SER     0.4275 ****
 16 C      28.869000   30.262000   24.145000 C     2 SER     0.5973 ****
 17 O      28.251000   30.878000   23.275000 O     2 SER    -0.5679 ****
 18 N      29.587000   30.886000   25.079000 N     3 ALA    -0.4157 ****
 19 H      30.168000   30.302000   25.667000 H     3 ALA     0.2719 ****
 20 CA     29.806000   32.331000   25.121000 C     3 ALA     0.0337 ****
 21 HA     28.961000   32.836000   24.649000 H     3 ALA     0.0823 ****
 22 CB     29.855000   32.763000   26.594000 C     3 ALA    -0.1825 ****
 23 HB1    30.702000   32.290000   27.092000 H     3 ALA     0.0603 ****
 24 HB2    29.960000   33.847000   26.662000 H     3 ALA     0.0603 ****
 25 HB3    28.932000   32.469000   27.096000 H     3 ALA     0.0603 ****
 26 C      31.085000   32.742000   24.361000 C     3 ALA     0.5973 ****
 27 O      31.933000   31.911000   24.034000 O     3 ALA    -0.5679 ****
 28 N      31.238000   34.042000   24.100000 N     4 SER    -0.4157 ****
 29 H      30.533000   34.690000   24.427000 H     4 SER     0.2719 ****
 30 CA     32.417000   34.644000   23.463000 C     4 SER    -0.0249 ****
 31 HA     33.314000   34.160000   23.851000 H     4 SER     0.0843 ****
 32 CB     32.365000   34.405000   21.948000 C     4 SER     0.2117 ****
 33 HB2    32.241000   33.337000   21.758000 H     4 SER     0.0352 ****
 34 HB3    31.515000   34.940000   21.523000 H     4 SER     0.0352 ****
 35 OG     33.561000   34.840000   21.328000 O     4 SER    -0.6546 ****
 36 HG     33.552000   34.545000   20.412000 H     4 SER     0.4275 ****
 37 C      32.501000   36.142000   23.796000 C     4 SER     0.5973 ****
 38 O      31.545000   36.710000   24.326000 O     4 SER    -0.5679 ****
 39 N      33.639000   36.780000   23.503000 N     5 NME    -0.4157 ****
 40 H      34.332000   36.254000   22.986000 H     5 NME     0.2719 ****
 41 CH3    33.892000   38.193000   23.777000 C     5 NME    -0.1490 ****
 42 HH31   33.798000   38.383000   24.848000 H     5 NME     0.0976 ****
 43 HH32   34.896000   38.466000   23.449000 H     5 NME     0.0976 ****
 44 HH33   33.161000   38.807000   23.248000 H     5 NME     0.0976 ****
@<TRIPOS>BOND
    1     5     6 1
    2     5     7 1
    3     2     3 1
    4     2     4 1
    5     2     5 1
    6     1     2 1
    7    16    17 1
    8    16    18 1
    9    14    15 1
   10    11    12 1
   11    11    13 1
   12    11    14 1
   13     9    10 1
   14     9    11 1
   15     9    16 1
   16     7     8 1
   17     7     9 1
   18    26    27 1
   19    26    28 1
   20    22    23 1
   21    22    24 1
   22    22    25 1
   23    20    21 1
   24    20    22 1
   25    20    26 1
   26    18    19 1
   27    18    20 1
   28    37    38 1
   29    37    39 1
   30    35    36 1
   31    32    33 1
   32    32    34 1
   33    32    35 1
   34    30    31 1
   35    30    32 1
   36    30    37 1
   37    28    29 1
   38    28    30 1
   39    41    42 1
   40    41    43 1
   41    41    44 1
   42    39    40 1
   43    39    41 1
@<TRIPOS>SUBSTRUCTURE
      1  ACE              1 ****               0 ****  **** 
      2  SER              7 ****               0 ****  **** 
      3  ALA             18 ****               0 ****  **** 
      4  SER             28 ****               0 ****  **** 
      5  NME             39 ****               0 ****  **** 
