@<TRIPOS>MOLECULE
default_name
   44    43     5     0     1 
SMALL
USER_CHARGES
@<TRIPOS>ATOM
  1 H1     25.546000   26.186000   22.409000 H     1 ACE     0.1123 ****
  2 CH3    25.773000   27.246000   22.509000 C     1 ACE    -0.3662 ****
  3 H2     25.057000   27.711000   23.184000 H     1 ACE     0.1123 ****
  4 H3     25.728000   27.725000   21.533000 H     1 ACE     0.1123 ****
  5 C      27.164000   27.398000   23.078000 C     1 ACE     0.5972 ****
  6 O      27.835000   26.408000   23.337000 O     1 ACE    -0.5679 ****
  7 N      27.600000   28.641000   23.262000 N     2 SER    -0.4157 ****
  8 H      26.978000   29.410000   23.052000 H     2 SER     0.2719 ****
  9 CA     28.882000   29.001000   23.882000 C     2 SER    -0.0249 ****
 10 HA     29.057000   28.346000   24.736000 H     2 SER     0.0843 ****
 11 CB     30.024000   28.790000   22.878000 C     2 SER     0.2117 ****
 12 HB2    29.962000   27.780000   22.472000 H     2 SER     0.0352 ****
 13 HB3    29.926000   29.506000   22.060000 H     2 SER     0.0352 ****
 14 OG     31.287000   28.949000   23.502000 O     2 SER    -0.6546 ****
 15 HG     31.960000   28.630000   22.892000 H     2 SER     0.4275 ****
 16 C      28.849000   30.451000   24.388000 C     2 SER     0.5973 ****
 17 O      27.895000   31.178000   24.111000 O     2 SER    -0.5679 ****
 18 N      29.871000   30.856000   25.145000 N     3 ALA    -0.4157 ****
 19 H      30.630000   30.199000   25.252000 H     3 ALA     0.2719 ****
 20 CA     30.111000   32.247000   25.533000 C     3 ALA     0.0337 ****
 21 HA     29.156000   32.774000   25.567000 H     3 ALA     0.0823 ****
 22 CB     30.684000   32.256000   26.962000 C     3 ALA    -0.1825 ****
 23 HB1    31.637000   31.728000   26.996000 H     3 ALA     0.0603 ****
 24 HB2    30.819000   33.285000   27.300000 H     3 ALA     0.0603 ****
 25 HB3    29.982000   31.763000   27.637000 H     3 ALA     0.0603 ****
 26 C      30.967000   32.984000   24.473000 C     3 ALA     0.5973 ****
 27 O      30.571000   33.077000   23.314000 O     3 ALA    -0.5679 ****
 28 N      32.163000   33.462000   24.848000 N     4 SER    -0.4157 ****
 29 H      32.413000   33.339000   25.815000 H     4 SER     0.2719 ****
 30 CA     32.968000   34.424000   24.071000 C     4 SER    -0.0249 ****
 31 HA     33.873000   34.623000   24.643000 H     4 SER     0.0843 ****
 32 CB     33.427000   33.791000   22.745000 C     4 SER     0.2117 ****
 33 HB2    33.770000   32.773000   22.936000 H     4 SER     0.0352 ****
 34 HB3    32.593000   33.755000   22.042000 H     4 SER     0.0352 ****
 35 OG     34.490000   34.528000   22.167000 O     4 SER    -0.6546 ****
 36 HG     34.778000   34.068000   21.372000 H     4 SER     0.4275 ****
 37 C      32.263000   35.789000   23.911000 C     4 SER     0.5973 ****
 38 O      31.298000   36.079000   24.618000 O     4 SER    -0.5679 ****
 39 N      32.784000   36.662000   23.041000 N     5 NME    -0.4157 ****
 40 H      33.584000   36.344000   22.509000 H     5 NME     0.2719 ****
 41 CH3    32.254000   38.000000   22.788000 C     5 NME    -0.1490 ****
 42 HH31   31.219000   37.925000   22.447000 H     5 NME     0.0976 ****
 43 HH32   32.274000   38.584000   23.710000 H     5 NME     0.0976 ****
 44 HH33   32.850000   38.504000   22.027000 H     5 NME     0.0976 ****
@<TRIPOS>BOND
    1     5     6 1
    2     5     7 1
    3     2     3 1
    4     2     4 1
    5     2     5 1
    6     1     2 1
    7    16    17 1
    8    16    18 1
    9    14    15 1
   10    11    12 1
   11    11    13 1
   12    11    14 1
   13     9    10 1
   14     9    11 1
   15     9    16 1
   16     7     8 1
   17     7     9 1
   18    26    27 1
   19    26    28 1
   20    22    23 1
   21    22    24 1
   22    22    25 1
   23    20    21 1
   24    20    22 1
   25    20    26 1
   26    18    19 1
   27    18    20 1
   28    37    38 1
   29    37    39 1
   30    35    36 1
   31    32    33 1
   32    32    34 1
   33    32    35 1
   34    30    31 1
   35    30    32 1
   36    30    37 1
   37    28    29 1
   38    28    30 1
   39    41    42 1
   40    41    43 1
   41    41    44 1
   42    39    40 1
   43    39    41 1
@<TRIPOS>SUBSTRUCTURE
      1  ACE              1 ****               0 ****  **** 
      2  SER              7 ****               0 ****  **** 
      3  ALA             18 ****               0 ****  **** 
      4  SER             28 ****               0 ****  **** 
      5  NME             39 ****               0 ****  **** 
