@<TRIPOS>MOLECULE
default_name
   44    43     5     0     1 
SMALL
USER_CHARGES
@<TRIPOS>ATOM
  1 H1     27.892000   25.968000   26.128000 H     1 ACE     0.1123 ****
  2 CH3    27.561000   26.473000   25.222000 C     1 ACE    -0.3662 ****
  3 H2     26.570000   26.893000   25.378000 H     1 ACE     0.1123 ****
  4 H3     27.540000   25.764000   24.396000 H     1 ACE     0.1123 ****
  5 C      28.531000   27.585000   24.900000 C     1 ACE     0.5972 ****
  6 O      29.498000   27.787000   25.622000 O     1 ACE    -0.5679 ****
  7 N      28.268000   28.309000   23.815000 N     2 SER    -0.4157 ****
  8 H      27.447000   28.088000   23.272000 H     2 SER     0.2719 ****
  9 CA     29.094000   29.423000   23.333000 C     2 SER    -0.0249 ****
 10 HA     29.575000   29.898000   24.180000 H     2 SER     0.0843 ****
 11 CB     30.211000   28.876000   22.434000 C     2 SER     0.2117 ****
 12 HB2    30.858000   28.223000   23.022000 H     2 SER     0.0352 ****
 13 HB3    29.770000   28.295000   21.622000 H     2 SER     0.0352 ****
 14 OG     30.983000   29.921000   21.880000 O     2 SER    -0.6546 ****
 15 HG     31.313000   30.469000   22.617000 H     2 SER     0.4275 ****
 16 C      28.228000   30.437000   22.568000 C     2 SER     0.5973 ****
 17 O      27.389000   29.999000   21.778000 O     2 SER    -0.5679 ****
 18 N      28.390000   31.767000   22.729000 N     3 ALA    -0.4157 ****
 19 H      27.897000   32.353000   22.069000 H     3 ALA     0.2719 ****
 20 CA     28.979000   32.509000   23.857000 C     3 ALA     0.0337 ****
 21 HA     28.595000   33.519000   23.705000 H     3 ALA     0.0823 ****
 22 CB     28.384000   32.122000   25.222000 C     3 ALA    -0.1825 ****
 23 HB1    28.804000   31.190000   25.594000 H     3 ALA     0.0603 ****
 24 HB2    28.614000   32.903000   25.948000 H     3 ALA     0.0603 ****
 25 HB3    27.301000   32.026000   25.145000 H     3 ALA     0.0603 ****
 26 C      30.511000   32.694000   23.803000 C     3 ALA     0.5973 ****
 27 O      31.264000   31.723000   23.823000 O     3 ALA    -0.5679 ****
 28 N      30.979000   33.943000   23.743000 N     4 SER    -0.4157 ****
 29 H      30.329000   34.717000   23.772000 H     4 SER     0.2719 ****
 30 CA     32.402000   34.312000   23.757000 C     4 SER    -0.0249 ****
 31 HA     32.922000   33.692000   24.489000 H     4 SER     0.0843 ****
 32 CB     33.026000   34.047000   22.379000 C     4 SER     0.2117 ****
 33 HB2    32.827000   33.015000   22.086000 H     4 SER     0.0352 ****
 34 HB3    32.580000   34.715000   21.641000 H     4 SER     0.0352 ****
 35 OG     34.426000   34.246000   22.418000 O     4 SER    -0.6546 ****
 36 HG     34.805000   33.899000   21.603000 H     4 SER     0.4275 ****
 37 C      32.566000   35.782000   24.175000 C     4 SER     0.5973 ****
 38 O      31.577000   36.515000   24.233000 O     4 SER    -0.5679 ****
 39 N      33.795000   36.211000   24.478000 N     5 NME    -0.4157 ****
 40 H      34.554000   35.563000   24.313000 H     5 NME     0.2719 ****
 41 CH3    34.116000   37.567000   24.917000 C     5 NME    -0.1490 ****
 42 HH31   33.566000   37.798000   25.832000 H     5 NME     0.0976 ****
 43 HH32   35.186000   37.658000   25.107000 H     5 NME     0.0976 ****
 44 HH33   33.825000   38.282000   24.145000 H     5 NME     0.0976 ****
@<TRIPOS>BOND
    1     5     6 1
    2     5     7 1
    3     2     3 1
    4     2     4 1
    5     2     5 1
    6     1     2 1
    7    16    17 1
    8    16    18 1
    9    14    15 1
   10    11    12 1
   11    11    13 1
   12    11    14 1
   13     9    10 1
   14     9    11 1
   15     9    16 1
   16     7     8 1
   17     7     9 1
   18    26    27 1
   19    26    28 1
   20    22    23 1
   21    22    24 1
   22    22    25 1
   23    20    21 1
   24    20    22 1
   25    20    26 1
   26    18    19 1
   27    18    20 1
   28    37    38 1
   29    37    39 1
   30    35    36 1
   31    32    33 1
   32    32    34 1
   33    32    35 1
   34    30    31 1
   35    30    32 1
   36    30    37 1
   37    28    29 1
   38    28    30 1
   39    41    42 1
   40    41    43 1
   41    41    44 1
   42    39    40 1
   43    39    41 1
@<TRIPOS>SUBSTRUCTURE
      1  ACE              1 ****               0 ****  **** 
      2  SER              7 ****               0 ****  **** 
      3  ALA             18 ****               0 ****  **** 
      4  SER             28 ****               0 ****  **** 
      5  NME             39 ****               0 ****  **** 
