@<TRIPOS>MOLECULE
default_name
   44    43     5     0     1 
SMALL
USER_CHARGES
@<TRIPOS>ATOM
  1 H1     27.108000   32.568000   21.205000 H     1 ACE     0.1123 ****
  2 CH3    27.554000   31.578000   21.118000 C     1 ACE    -0.3662 ****
  3 H2     28.423000   31.628000   20.464000 H     1 ACE     0.1123 ****
  4 H3     26.821000   30.883000   20.714000 H     1 ACE     0.1123 ****
  5 C      27.989000   31.114000   22.487000 C     1 ACE     0.5972 ****
  6 O      27.842000   31.842000   23.461000 O     1 ACE    -0.5679 ****
  7 N      28.529000   29.899000   22.569000 N     2 SER    -0.4157 ****
  8 H      28.664000   29.378000   21.719000 H     2 SER     0.2719 ****
  9 CA     29.106000   29.382000   23.817000 C     2 SER    -0.0249 ****
 10 HA     28.372000   29.511000   24.614000 H     2 SER     0.0843 ****
 11 CB     29.408000   27.888000   23.699000 C     2 SER     0.2117 ****
 12 HB2    28.503000   27.356000   23.403000 H     2 SER     0.0352 ****
 13 HB3    30.183000   27.730000   22.947000 H     2 SER     0.0352 ****
 14 OG     29.851000   27.398000   24.948000 O     2 SER    -0.6546 ****
 15 HG     30.105000   26.475000   24.851000 H     2 SER     0.4275 ****
 16 C      30.375000   30.155000   24.196000 C     2 SER     0.5973 ****
 17 O      31.244000   30.368000   23.349000 O     2 SER    -0.5679 ****
 18 N      30.459000   30.620000   25.446000 N     3 ALA    -0.4157 ****
 19 H      29.678000   30.447000   26.060000 H     3 ALA     0.2719 ****
 20 CA     31.627000   31.294000   26.016000 C     3 ALA     0.0337 ****
 21 HA     31.456000   31.271000   27.093000 H     3 ALA     0.0823 ****
 22 CB     32.950000   30.523000   25.838000 C     3 ALA    -0.1825 ****
 23 HB1    33.282000   30.542000   24.801000 H     3 ALA     0.0603 ****
 24 HB2    33.721000   30.982000   26.457000 H     3 ALA     0.0603 ****
 25 HB3    32.816000   29.487000   26.151000 H     3 ALA     0.0603 ****
 26 C      31.624000   32.794000   25.691000 C     3 ALA     0.5973 ****
 27 O      31.086000   33.598000   26.444000 O     3 ALA    -0.5679 ****
 28 N      32.231000   33.160000   24.559000 N     4 SER    -0.4157 ****
 29 H      32.566000   32.414000   23.965000 H     4 SER     0.2719 ****
 30 CA     32.374000   34.547000   24.081000 C     4 SER    -0.0249 ****
 31 HA     32.565000   35.176000   24.952000 H     4 SER     0.0843 ****
 32 CB     33.612000   34.637000   23.177000 C     4 SER     0.2117 ****
 33 HB2    34.466000   34.184000   23.683000 H     4 SER     0.0352 ****
 34 HB3    33.424000   34.098000   22.247000 H     4 SER     0.0352 ****
 35 OG     33.923000   35.982000   22.885000 O     4 SER    -0.6546 ****
 36 HG     33.110000   36.387000   22.539000 H     4 SER     0.4275 ****
 37 C      31.118000   35.130000   23.392000 C     4 SER     0.5973 ****
 38 O      31.229000   36.089000   22.626000 O     4 SER    -0.5679 ****
 39 N      29.930000   34.551000   23.613000 N     5 NME    -0.4157 ****
 40 H      29.891000   33.781000   24.264000 H     5 NME     0.2719 ****
 41 CH3    28.673000   34.997000   23.018000 C     5 NME    -0.1490 ****
 42 HH31   27.837000   34.461000   23.471000 H     5 NME     0.0976 ****
 43 HH32   28.544000   36.068000   23.184000 H     5 NME     0.0976 ****
 44 HH33   28.684000   34.804000   21.944000 H     5 NME     0.0976 ****
@<TRIPOS>BOND
    1     5     6 1
    2     5     7 1
    3     2     3 1
    4     2     4 1
    5     2     5 1
    6     1     2 1
    7    16    17 1
    8    16    18 1
    9    14    15 1
   10    11    12 1
   11    11    13 1
   12    11    14 1
   13     9    10 1
   14     9    11 1
   15     9    16 1
   16     7     8 1
   17     7     9 1
   18    26    27 1
   19    26    28 1
   20    22    23 1
   21    22    24 1
   22    22    25 1
   23    20    21 1
   24    20    22 1
   25    20    26 1
   26    18    19 1
   27    18    20 1
   28    37    38 1
   29    37    39 1
   30    35    36 1
   31    32    33 1
   32    32    34 1
   33    32    35 1
   34    30    31 1
   35    30    32 1
   36    30    37 1
   37    28    29 1
   38    28    30 1
   39    41    42 1
   40    41    43 1
   41    41    44 1
   42    39    40 1
   43    39    41 1
@<TRIPOS>SUBSTRUCTURE
      1  ACE              1 ****               0 ****  **** 
      2  SER              7 ****               0 ****  **** 
      3  ALA             18 ****               0 ****  **** 
      4  SER             28 ****               0 ****  **** 
      5  NME             39 ****               0 ****  **** 
