@<TRIPOS>MOLECULE
default_name
   44    43     5     0     1 
SMALL
USER_CHARGES
@<TRIPOS>ATOM
  1 H1     26.517000   25.280000   24.222000 H     1 ACE     0.1123 ****
  2 CH3    26.390000   26.361000   24.184000 C     1 ACE    -0.3662 ****
  3 H2     26.006000   26.717000   25.138000 H     1 ACE     0.1123 ****
  4 H3     25.697000   26.620000   23.385000 H     1 ACE     0.1123 ****
  5 C      27.730000   27.003000   23.913000 C     1 ACE     0.5972 ****
  6 O      28.728000   26.310000   23.770000 O     1 ACE    -0.5679 ****
  7 N      27.751000   28.331000   23.836000 N     2 SER    -0.4157 ****
  8 H      26.893000   28.839000   24.001000 H     2 SER     0.2719 ****
  9 CA     28.965000   29.141000   23.666000 C     2 SER    -0.0249 ****
 10 HA     29.756000   28.717000   24.285000 H     2 SER     0.0843 ****
 11 CB     29.430000   29.087000   22.203000 C     2 SER     0.2117 ****
 12 HB2    29.530000   28.045000   21.897000 H     2 SER     0.0352 ****
 13 HB3    28.689000   29.572000   21.566000 H     2 SER     0.0352 ****
 14 OG     30.686000   29.728000   22.047000 O     2 SER    -0.6546 ****
 15 HG     31.023000   29.518000   21.169000 H     2 SER     0.4275 ****
 16 C      28.723000   30.586000   24.133000 C     2 SER     0.5973 ****
 17 O      27.597000   30.952000   24.468000 O     2 SER    -0.5679 ****
 18 N      29.778000   31.403000   24.163000 N     3 ALA    -0.4157 ****
 19 H      30.627000   31.037000   23.752000 H     3 ALA     0.2719 ****
 20 CA     29.739000   32.816000   24.543000 C     3 ALA     0.0337 ****
 21 HA     28.796000   33.242000   24.192000 H     3 ALA     0.0823 ****
 22 CB     29.769000   32.943000   26.076000 C     3 ALA    -0.1825 ****
 23 HB1    30.657000   32.462000   26.487000 H     3 ALA     0.0603 ****
 24 HB2    29.761000   33.997000   26.358000 H     3 ALA     0.0603 ****
 25 HB3    28.884000   32.465000   26.498000 H     3 ALA     0.0603 ****
 26 C      30.862000   33.604000   23.847000 C     3 ALA     0.5973 ****
 27 O      30.609000   34.326000   22.890000 O     3 ALA    -0.5679 ****
 28 N      32.107000   33.461000   24.321000 N     4 SER    -0.4157 ****
 29 H      32.225000   32.848000   25.112000 H     4 SER     0.2719 ****
 30 CA     33.333000   34.053000   23.744000 C     4 SER    -0.0249 ****
 31 HA     34.146000   33.772000   24.413000 H     4 SER     0.0843 ****
 32 CB     33.649000   33.395000   22.392000 C     4 SER     0.2117 ****
 33 HB2    33.527000   32.314000   22.472000 H     4 SER     0.0352 ****
 34 HB3    32.966000   33.773000   21.630000 H     4 SER     0.0352 ****
 35 OG     34.980000   33.674000   22.017000 O     4 SER    -0.6546 ****
 36 HG     35.091000   34.639000   22.051000 H     4 SER     0.4275 ****
 37 C      33.401000   35.595000   23.655000 C     4 SER     0.5973 ****
 38 O      34.362000   36.124000   23.097000 O     4 SER    -0.5679 ****
 39 N      32.427000   36.326000   24.213000 N     5 NME    -0.4157 ****
 40 H      31.635000   35.834000   24.591000 H     5 NME     0.2719 ****
 41 CH3    32.383000   37.787000   24.197000 C     5 NME    -0.1490 ****
 42 HH31   31.514000   38.145000   24.750000 H     5 NME     0.0976 ****
 43 HH32   33.292000   38.190000   24.648000 H     5 NME     0.0976 ****
 44 HH33   32.321000   38.140000   23.165000 H     5 NME     0.0976 ****
@<TRIPOS>BOND
    1     5     6 1
    2     5     7 1
    3     2     3 1
    4     2     4 1
    5     2     5 1
    6     1     2 1
    7    16    17 1
    8    16    18 1
    9    14    15 1
   10    11    12 1
   11    11    13 1
   12    11    14 1
   13     9    10 1
   14     9    11 1
   15     9    16 1
   16     7     8 1
   17     7     9 1
   18    26    27 1
   19    26    28 1
   20    22    23 1
   21    22    24 1
   22    22    25 1
   23    20    21 1
   24    20    22 1
   25    20    26 1
   26    18    19 1
   27    18    20 1
   28    37    38 1
   29    37    39 1
   30    35    36 1
   31    32    33 1
   32    32    34 1
   33    32    35 1
   34    30    31 1
   35    30    32 1
   36    30    37 1
   37    28    29 1
   38    28    30 1
   39    41    42 1
   40    41    43 1
   41    41    44 1
   42    39    40 1
   43    39    41 1
@<TRIPOS>SUBSTRUCTURE
      1  ACE              1 ****               0 ****  **** 
      2  SER              7 ****               0 ****  **** 
      3  ALA             18 ****               0 ****  **** 
      4  SER             28 ****               0 ****  **** 
      5  NME             39 ****               0 ****  **** 
