@<TRIPOS>MOLECULE
default_name
   44    43     5     0     1 
SMALL
USER_CHARGES
@<TRIPOS>ATOM
  1 H1     25.601000   25.990000   23.231000 H     1 ACE     0.1123 ****
  2 CH3    25.729000   27.067000   23.333000 C     1 ACE    -0.3662 ****
  3 H2     25.230000   27.410000   24.238000 H     1 ACE     0.1123 ****
  4 H3     25.309000   27.570000   22.464000 H     1 ACE     0.1123 ****
  5 C      27.204000   27.378000   23.428000 C     1 ACE     0.5972 ****
  6 O      28.028000   26.475000   23.378000 O     1 ACE    -0.5679 ****
  7 N      27.536000   28.660000   23.558000 N     2 SER    -0.4157 ****
  8 H      26.798000   29.347000   23.626000 H     2 SER     0.2719 ****
  9 CA     28.905000   29.158000   23.748000 C     2 SER    -0.0249 ****
 10 HA     29.429000   28.491000   24.433000 H     2 SER     0.0843 ****
 11 CB     29.657000   29.146000   22.408000 C     2 SER     0.2117 ****
 12 HB2    29.581000   28.154000   21.961000 H     2 SER     0.0352 ****
 13 HB3    29.204000   29.873000   21.731000 H     2 SER     0.0352 ****
 14 OG     31.027000   29.457000   22.594000 O     2 SER    -0.6546 ****
 15 HG     31.471000   29.373000   21.744000 H     2 SER     0.4275 ****
 16 C      28.890000   30.564000   24.370000 C     2 SER     0.5973 ****
 17 O      27.826000   31.165000   24.520000 O     2 SER    -0.5679 ****
 18 N      30.064000   31.080000   24.739000 N     3 ALA    -0.4157 ****
 19 H      30.880000   30.544000   24.475000 H     3 ALA     0.2719 ****
 20 CA     30.265000   32.445000   25.226000 C     3 ALA     0.0337 ****
 21 HA     29.311000   32.976000   25.201000 H     3 ALA     0.0823 ****
 22 CB     30.703000   32.378000   26.700000 C     3 ALA    -0.1825 ****
 23 HB1    31.647000   31.839000   26.793000 H     3 ALA     0.0603 ****
 24 HB2    30.809000   33.385000   27.105000 H     3 ALA     0.0603 ****
 25 HB3    29.942000   31.853000   27.279000 H     3 ALA     0.0603 ****
 26 C      31.205000   33.228000   24.283000 C     3 ALA     0.5973 ****
 27 O      30.888000   33.407000   23.113000 O     3 ALA    -0.5679 ****
 28 N      32.365000   33.685000   24.772000 N     4 SER    -0.4157 ****
 29 H      32.561000   33.487000   25.741000 H     4 SER     0.2719 ****
 30 CA     33.424000   34.376000   24.005000 C     4 SER    -0.0249 ****
 31 HA     34.191000   34.650000   24.729000 H     4 SER     0.0843 ****
 32 CB     34.092000   33.397000   23.028000 C     4 SER     0.2117 ****
 33 HB2    34.288000   32.451000   23.534000 H     4 SER     0.0352 ****
 34 HB3    33.431000   33.215000   22.179000 H     4 SER     0.0352 ****
 35 OG     35.317000   33.929000   22.571000 O     4 SER    -0.6546 ****
 36 HG     35.130000   34.815000   22.219000 H     4 SER     0.4275 ****
 37 C      33.043000   35.703000   23.307000 C     4 SER     0.5973 ****
 38 O      33.868000   36.261000   22.584000 O     4 SER    -0.5679 ****
 39 N      31.832000   36.233000   23.523000 N     5 NME    -0.4157 ****
 40 H      31.177000   35.693000   24.065000 H     5 NME     0.2719 ****
 41 CH3    31.360000   37.480000   22.923000 C     5 NME    -0.1490 ****
 42 HH31   30.358000   37.716000   23.282000 H     5 NME     0.0976 ****
 43 HH32   32.039000   38.295000   23.181000 H     5 NME     0.0976 ****
 44 HH33   31.337000   37.376000   21.836000 H     5 NME     0.0976 ****
@<TRIPOS>BOND
    1     5     6 1
    2     5     7 1
    3     2     3 1
    4     2     4 1
    5     2     5 1
    6     1     2 1
    7    16    17 1
    8    16    18 1
    9    14    15 1
   10    11    12 1
   11    11    13 1
   12    11    14 1
   13     9    10 1
   14     9    11 1
   15     9    16 1
   16     7     8 1
   17     7     9 1
   18    26    27 1
   19    26    28 1
   20    22    23 1
   21    22    24 1
   22    22    25 1
   23    20    21 1
   24    20    22 1
   25    20    26 1
   26    18    19 1
   27    18    20 1
   28    37    38 1
   29    37    39 1
   30    35    36 1
   31    32    33 1
   32    32    34 1
   33    32    35 1
   34    30    31 1
   35    30    32 1
   36    30    37 1
   37    28    29 1
   38    28    30 1
   39    41    42 1
   40    41    43 1
   41    41    44 1
   42    39    40 1
   43    39    41 1
@<TRIPOS>SUBSTRUCTURE
      1  ACE              1 ****               0 ****  **** 
      2  SER              7 ****               0 ****  **** 
      3  ALA             18 ****               0 ****  **** 
      4  SER             28 ****               0 ****  **** 
      5  NME             39 ****               0 ****  **** 
