@<TRIPOS>MOLECULE
default_name
   44    43     5     0     1 
SMALL
USER_CHARGES
@<TRIPOS>ATOM
  1 H1     31.091000   27.431000   21.561000 H     1 ACE     0.1123 ****
  2 CH3    30.198000   27.461000   22.184000 C     1 ACE    -0.3662 ****
  3 H2     30.429000   27.066000   23.172000 H     1 ACE     0.1123 ****
  4 H3     29.413000   26.865000   21.720000 H     1 ACE     0.1123 ****
  5 C      29.736000   28.894000   22.315000 C     1 ACE     0.5972 ****
  6 O      30.411000   29.807000   21.856000 O     1 ACE    -0.5679 ****
  7 N      28.577000   29.092000   22.941000 N     2 SER    -0.4157 ****
  8 H      28.104000   28.295000   23.335000 H     2 SER     0.2719 ****
  9 CA     28.001000   30.424000   23.171000 C     2 SER    -0.0249 ****
 10 HA     28.365000   31.104000   22.400000 H     2 SER     0.0843 ****
 11 CB     26.479000   30.373000   23.028000 C     2 SER     0.2117 ****
 12 HB2    26.218000   29.933000   22.064000 H     2 SER     0.0352 ****
 13 HB3    26.053000   29.765000   23.828000 H     2 SER     0.0352 ****
 14 OG     25.961000   31.686000   23.095000 O     2 SER    -0.6546 ****
 15 HG     25.016000   31.642000   23.264000 H     2 SER     0.4275 ****
 16 C      28.398000   30.993000   24.539000 C     2 SER     0.5973 ****
 17 O      27.945000   30.495000   25.567000 O     2 SER    -0.5679 ****
 18 N      29.231000   32.039000   24.524000 N     3 ALA    -0.4157 ****
 19 H      29.544000   32.331000   23.611000 H     3 ALA     0.2719 ****
 20 CA     29.587000   32.926000   25.641000 C     3 ALA     0.0337 ****
 21 HA     28.694000   33.454000   25.979000 H     3 ALA     0.0823 ****
 22 CB     30.173000   32.137000   26.833000 C     3 ALA    -0.1825 ****
 23 HB1    30.952000   31.452000   26.497000 H     3 ALA     0.0603 ****
 24 HB2    30.582000   32.828000   27.571000 H     3 ALA     0.0603 ****
 25 HB3    29.387000   31.560000   27.321000 H     3 ALA     0.0603 ****
 26 C      30.585000   33.981000   25.119000 C     3 ALA     0.5973 ****
 27 O      30.171000   35.010000   24.597000 O     3 ALA    -0.5679 ****
 28 N      31.890000   33.687000   25.154000 N     4 SER    -0.4157 ****
 29 H      32.154000   32.815000   25.586000 H     4 SER     0.2719 ****
 30 CA     32.959000   34.485000   24.529000 C     4 SER    -0.0249 ****
 31 HA     32.621000   35.517000   24.434000 H     4 SER     0.0843 ****
 32 CB     34.188000   34.500000   25.449000 C     4 SER     0.2117 ****
 33 HB2    33.914000   34.947000   26.406000 H     4 SER     0.0352 ****
 34 HB3    34.531000   33.478000   25.622000 H     4 SER     0.0352 ****
 35 OG     35.233000   35.251000   24.873000 O     4 SER    -0.6546 ****
 36 HG     35.478000   34.800000   24.050000 H     4 SER     0.4275 ****
 37 C      33.276000   33.985000   23.106000 C     4 SER     0.5973 ****
 38 O      34.409000   33.605000   22.808000 O     4 SER    -0.5679 ****
 39 N      32.253000   33.920000   22.243000 N     5 NME    -0.4157 ****
 40 H      31.369000   34.305000   22.540000 H     5 NME     0.2719 ****
 41 CH3    32.328000   33.325000   20.910000 C     5 NME    -0.1490 ****
 42 HH31   31.326000   33.096000   20.544000 H     5 NME     0.0976 ****
 43 HH32   32.818000   34.013000   20.219000 H     5 NME     0.0976 ****
 44 HH33   32.905000   32.398000   20.949000 H     5 NME     0.0976 ****
@<TRIPOS>BOND
    1     5     6 1
    2     5     7 1
    3     2     3 1
    4     2     4 1
    5     2     5 1
    6     1     2 1
    7    16    17 1
    8    16    18 1
    9    14    15 1
   10    11    12 1
   11    11    13 1
   12    11    14 1
   13     9    10 1
   14     9    11 1
   15     9    16 1
   16     7     8 1
   17     7     9 1
   18    26    27 1
   19    26    28 1
   20    22    23 1
   21    22    24 1
   22    22    25 1
   23    20    21 1
   24    20    22 1
   25    20    26 1
   26    18    19 1
   27    18    20 1
   28    37    38 1
   29    37    39 1
   30    35    36 1
   31    32    33 1
   32    32    34 1
   33    32    35 1
   34    30    31 1
   35    30    32 1
   36    30    37 1
   37    28    29 1
   38    28    30 1
   39    41    42 1
   40    41    43 1
   41    41    44 1
   42    39    40 1
   43    39    41 1
@<TRIPOS>SUBSTRUCTURE
      1  ACE              1 ****               0 ****  **** 
      2  SER              7 ****               0 ****  **** 
      3  ALA             18 ****               0 ****  **** 
      4  SER             28 ****               0 ****  **** 
      5  NME             39 ****               0 ****  **** 
