@<TRIPOS>MOLECULE
default_name
   44    43     5     0     1 
SMALL
USER_CHARGES
@<TRIPOS>ATOM
  1 H1     25.652000   27.972000   21.600000 H     1 ACE     0.1123 ****
  2 CH3    25.901000   28.948000   22.014000 C     1 ACE    -0.3662 ****
  3 H2     25.232000   29.175000   22.842000 H     1 ACE     0.1123 ****
  4 H3     25.808000   29.707000   21.241000 H     1 ACE     0.1123 ****
  5 C      27.326000   28.916000   22.516000 C     1 ACE     0.5972 ****
  6 O      27.993000   27.896000   22.413000 O     1 ACE    -0.5679 ****
  7 N      27.793000   30.038000   23.058000 N     2 SER    -0.4157 ****
  8 H      27.180000   30.838000   23.123000 H     2 SER     0.2719 ****
  9 CA     29.138000   30.190000   23.627000 C     2 SER    -0.0249 ****
 10 HA     29.416000   29.269000   24.140000 H     2 SER     0.0843 ****
 11 CB     30.152000   30.443000   22.504000 C     2 SER     0.2117 ****
 12 HB2    30.175000   29.584000   21.831000 H     2 SER     0.0352 ****
 13 HB3    29.843000   31.323000   21.938000 H     2 SER     0.0352 ****
 14 OG     31.451000   30.667000   23.023000 O     2 SER    -0.6546 ****
 15 HG     31.898000   31.280000   22.410000 H     2 SER     0.4275 ****
 16 C      29.175000   31.345000   24.632000 C     2 SER     0.5973 ****
 17 O      28.431000   32.313000   24.489000 O     2 SER    -0.5679 ****
 18 N      30.076000   31.268000   25.614000 N     3 ALA    -0.4157 ****
 19 H      30.651000   30.442000   25.653000 H     3 ALA     0.2719 ****
 20 CA     30.407000   32.385000   26.502000 C     3 ALA     0.0337 ****
 21 HA     29.488000   32.897000   26.794000 H     3 ALA     0.0823 ****
 22 CB     31.078000   31.829000   27.765000 C     3 ALA    -0.1825 ****
 23 HB1    31.999000   31.304000   27.509000 H     3 ALA     0.0603 ****
 24 HB2    31.313000   32.651000   28.442000 H     3 ALA     0.0603 ****
 25 HB3    30.399000   31.141000   28.271000 H     3 ALA     0.0603 ****
 26 C      31.299000   33.412000   25.777000 C     3 ALA     0.5973 ****
 27 O      31.060000   34.614000   25.846000 O     3 ALA    -0.5679 ****
 28 N      32.320000   32.933000   25.056000 N     4 SER    -0.4157 ****
 29 H      32.420000   31.930000   25.012000 H     4 SER     0.2719 ****
 30 CA     33.054000   33.722000   24.061000 C     4 SER    -0.0249 ****
 31 HA     33.191000   34.740000   24.428000 H     4 SER     0.0843 ****
 32 CB     34.444000   33.111000   23.846000 C     4 SER     0.2117 ****
 33 HB2    35.021000   33.200000   24.768000 H     4 SER     0.0352 ****
 34 HB3    34.350000   32.054000   23.590000 H     4 SER     0.0352 ****
 35 OG     35.125000   33.781000   22.807000 O     4 SER    -0.6546 ****
 36 HG     34.717000   33.523000   21.971000 H     4 SER     0.4275 ****
 37 C      32.246000   33.780000   22.756000 C     4 SER     0.5973 ****
 38 O      32.441000   32.945000   21.867000 O     4 SER    -0.5679 ****
 39 N      31.298000   34.718000   22.666000 N     5 NME    -0.4157 ****
 40 H      31.162000   35.322000   23.466000 H     5 NME     0.2719 ****
 41 CH3    30.383000   34.866000   21.537000 C     5 NME    -0.1490 ****
 42 HH31   29.626000   34.080000   21.574000 H     5 NME     0.0976 ****
 43 HH32   29.889000   35.838000   21.582000 H     5 NME     0.0976 ****
 44 HH33   30.932000   34.787000   20.596000 H     5 NME     0.0976 ****
@<TRIPOS>BOND
    1     5     6 1
    2     5     7 1
    3     2     3 1
    4     2     4 1
    5     2     5 1
    6     1     2 1
    7    16    17 1
    8    16    18 1
    9    14    15 1
   10    11    12 1
   11    11    13 1
   12    11    14 1
   13     9    10 1
   14     9    11 1
   15     9    16 1
   16     7     8 1
   17     7     9 1
   18    26    27 1
   19    26    28 1
   20    22    23 1
   21    22    24 1
   22    22    25 1
   23    20    21 1
   24    20    22 1
   25    20    26 1
   26    18    19 1
   27    18    20 1
   28    37    38 1
   29    37    39 1
   30    35    36 1
   31    32    33 1
   32    32    34 1
   33    32    35 1
   34    30    31 1
   35    30    32 1
   36    30    37 1
   37    28    29 1
   38    28    30 1
   39    41    42 1
   40    41    43 1
   41    41    44 1
   42    39    40 1
   43    39    41 1
@<TRIPOS>SUBSTRUCTURE
      1  ACE              1 ****               0 ****  **** 
      2  SER              7 ****               0 ****  **** 
      3  ALA             18 ****               0 ****  **** 
      4  SER             28 ****               0 ****  **** 
      5  NME             39 ****               0 ****  **** 
