@<TRIPOS>MOLECULE
default_name
   44    43     5     0     1 
SMALL
USER_CHARGES
@<TRIPOS>ATOM
  1 H1     25.215000   26.896000   23.174000 H     1 ACE     0.1123 ****
  2 CH3    26.233000   26.866000   22.788000 C     1 ACE    -0.3662 ****
  3 H2     26.245000   27.232000   21.763000 H     1 ACE     0.1123 ****
  4 H3     26.608000   25.845000   22.824000 H     1 ACE     0.1123 ****
  5 C      27.107000   27.753000   23.643000 C     1 ACE     0.5972 ****
  6 O      26.629000   28.362000   24.593000 O     1 ACE    -0.5679 ****
  7 N      28.394000   27.828000   23.311000 N     2 SER    -0.4157 ****
  8 H      28.711000   27.336000   22.492000 H     2 SER     0.2719 ****
  9 CA     29.329000   28.727000   23.996000 C     2 SER    -0.0249 ****
 10 HA     29.201000   28.615000   25.073000 H     2 SER     0.0843 ****
 11 CB     30.780000   28.367000   23.661000 C     2 SER     0.2117 ****
 12 HB2    30.968000   27.333000   23.953000 H     2 SER     0.0352 ****
 13 HB3    30.950000   28.469000   22.588000 H     2 SER     0.0352 ****
 14 OG     31.672000   29.211000   24.361000 O     2 SER    -0.6546 ****
 15 HG     31.672000   30.095000   23.944000 H     2 SER     0.4275 ****
 16 C      29.074000   30.187000   23.620000 C     2 SER     0.5973 ****
 17 O      29.175000   30.552000   22.450000 O     2 SER    -0.5679 ****
 18 N      28.755000   31.030000   24.605000 N     3 ALA    -0.4157 ****
 19 H      28.408000   30.576000   25.435000 H     3 ALA     0.2719 ****
 20 CA     29.416000   32.318000   24.870000 C     3 ALA     0.0337 ****
 21 HA     28.674000   33.096000   24.687000 H     3 ALA     0.0823 ****
 22 CB     29.765000   32.350000   26.365000 C     3 ALA    -0.1825 ****
 23 HB1    30.509000   31.583000   26.588000 H     3 ALA     0.0603 ****
 24 HB2    30.171000   33.326000   26.635000 H     3 ALA     0.0603 ****
 25 HB3    28.870000   32.170000   26.963000 H     3 ALA     0.0603 ****
 26 C      30.658000   32.684000   24.011000 C     3 ALA     0.5973 ****
 27 O      31.413000   31.825000   23.549000 O     3 ALA    -0.5679 ****
 28 N      31.011000   33.972000   24.004000 N     4 SER    -0.4157 ****
 29 H      30.431000   34.640000   24.492000 H     4 SER     0.2719 ****
 30 CA     32.248000   34.507000   23.418000 C     4 SER    -0.0249 ****
 31 HA     33.076000   33.843000   23.669000 H     4 SER     0.0843 ****
 32 CB     32.120000   34.553000   21.889000 C     4 SER     0.2117 ****
 33 HB2    31.835000   33.565000   21.524000 H     4 SER     0.0352 ****
 34 HB3    31.346000   35.269000   21.608000 H     4 SER     0.0352 ****
 35 OG     33.350000   34.920000   21.292000 O     4 SER    -0.6546 ****
 36 HG     33.284000   34.760000   20.345000 H     4 SER     0.4275 ****
 37 C      32.559000   35.895000   24.002000 C     4 SER     0.5973 ****
 38 O      31.713000   36.480000   24.681000 O     4 SER    -0.5679 ****
 39 N      33.765000   36.416000   23.757000 N     5 NME    -0.4157 ****
 40 H      34.357000   35.904000   23.115000 H     5 NME     0.2719 ****
 41 CH3    34.229000   37.708000   24.258000 C     5 NME    -0.1490 ****
 42 HH31   34.201000   37.711000   25.349000 H     5 NME     0.0976 ****
 43 HH32   35.249000   37.898000   23.922000 H     5 NME     0.0976 ****
 44 HH33   33.574000   38.501000   23.890000 H     5 NME     0.0976 ****
@<TRIPOS>BOND
    1     5     6 1
    2     5     7 1
    3     2     3 1
    4     2     4 1
    5     2     5 1
    6     1     2 1
    7    16    17 1
    8    16    18 1
    9    14    15 1
   10    11    12 1
   11    11    13 1
   12    11    14 1
   13     9    10 1
   14     9    11 1
   15     9    16 1
   16     7     8 1
   17     7     9 1
   18    26    27 1
   19    26    28 1
   20    22    23 1
   21    22    24 1
   22    22    25 1
   23    20    21 1
   24    20    22 1
   25    20    26 1
   26    18    19 1
   27    18    20 1
   28    37    38 1
   29    37    39 1
   30    35    36 1
   31    32    33 1
   32    32    34 1
   33    32    35 1
   34    30    31 1
   35    30    32 1
   36    30    37 1
   37    28    29 1
   38    28    30 1
   39    41    42 1
   40    41    43 1
   41    41    44 1
   42    39    40 1
   43    39    41 1
@<TRIPOS>SUBSTRUCTURE
      1  ACE              1 ****               0 ****  **** 
      2  SER              7 ****               0 ****  **** 
      3  ALA             18 ****               0 ****  **** 
      4  SER             28 ****               0 ****  **** 
      5  NME             39 ****               0 ****  **** 
