@<TRIPOS>MOLECULE
default_name
   44    43     5     0     1 
SMALL
USER_CHARGES
@<TRIPOS>ATOM
  1 H1     25.427000   30.325000   22.318000 H     1 ACE     0.1123 ****
  2 CH3    26.329000   29.882000   21.898000 C     1 ACE    -0.3662 ****
  3 H2     26.796000   30.588000   21.213000 H     1 ACE     0.1123 ****
  4 H3     26.073000   28.965000   21.371000 H     1 ACE     0.1123 ****
  5 C      27.287000   29.565000   23.022000 C     1 ACE     0.5972 ****
  6 O      26.983000   29.816000   24.180000 O     1 ACE    -0.5679 ****
  7 N      28.450000   29.012000   22.680000 N     2 SER    -0.4157 ****
  8 H      28.629000   28.858000   21.701000 H     2 SER     0.2719 ****
  9 CA     29.515000   28.690000   23.640000 C     2 SER    -0.0249 ****
 10 HA     29.071000   28.216000   24.516000 H     2 SER     0.0843 ****
 11 CB     30.483000   27.679000   23.013000 C     2 SER     0.2117 ****
 12 HB2    29.952000   26.747000   22.816000 H     2 SER     0.0352 ****
 13 HB3    30.870000   28.071000   22.071000 H     2 SER     0.0352 ****
 14 OG     31.563000   27.421000   23.885000 O     2 SER    -0.6546 ****
 15 HG     32.138000   28.198000   23.883000 H     2 SER     0.4275 ****
 16 C      30.260000   29.950000   24.102000 C     2 SER     0.5973 ****
 17 O      31.203000   30.371000   23.435000 O     2 SER    -0.5679 ****
 18 N      29.812000   30.533000   25.222000 N     3 ALA    -0.4157 ****
 19 H      28.979000   30.126000   25.618000 H     3 ALA     0.2719 ****
 20 CA     30.429000   31.601000   26.026000 C     3 ALA     0.0337 ****
 21 HA     29.645000   32.315000   26.281000 H     3 ALA     0.0823 ****
 22 CB     30.912000   30.967000   27.339000 C     3 ALA    -0.1825 ****
 23 HB1    31.680000   30.219000   27.131000 H     3 ALA     0.0603 ****
 24 HB2    31.336000   31.737000   27.984000 H     3 ALA     0.0603 ****
 25 HB3    30.078000   30.492000   27.856000 H     3 ALA     0.0603 ****
 26 C      31.553000   32.402000   25.327000 C     3 ALA     0.5973 ****
 27 O      32.736000   32.082000   25.444000 O     3 ALA    -0.5679 ****
 28 N      31.180000   33.488000   24.645000 N     4 SER    -0.4157 ****
 29 H      30.201000   33.735000   24.611000 H     4 SER     0.2719 ****
 30 CA     32.097000   34.367000   23.909000 C     4 SER    -0.0249 ****
 31 HA     32.981000   34.549000   24.520000 H     4 SER     0.0843 ****
 32 CB     32.544000   33.668000   22.618000 C     4 SER     0.2117 ****
 33 HB2    32.955000   32.688000   22.864000 H     4 SER     0.0352 ****
 34 HB3    31.684000   33.530000   21.960000 H     4 SER     0.0352 ****
 35 OG     33.539000   34.423000   21.951000 O     4 SER    -0.6546 ****
 36 HG     33.954000   33.852000   21.297000 H     4 SER     0.4275 ****
 37 C      31.429000   35.720000   23.615000 C     4 SER     0.5973 ****
 38 O      30.219000   35.864000   23.796000 O     4 SER    -0.5679 ****
 39 N      32.209000   36.713000   23.174000 N     5 NME    -0.4157 ****
 40 H      33.169000   36.472000   22.965000 H     5 NME     0.2719 ****
 41 CH3    31.743000   38.064000   22.872000 C     5 NME    -0.1490 ****
 42 HH31   31.293000   38.506000   23.763000 H     5 NME     0.0976 ****
 43 HH32   32.576000   38.685000   22.541000 H     5 NME     0.0976 ****
 44 HH33   30.988000   38.023000   22.084000 H     5 NME     0.0976 ****
@<TRIPOS>BOND
    1     5     6 1
    2     5     7 1
    3     2     3 1
    4     2     4 1
    5     2     5 1
    6     1     2 1
    7    16    17 1
    8    16    18 1
    9    14    15 1
   10    11    12 1
   11    11    13 1
   12    11    14 1
   13     9    10 1
   14     9    11 1
   15     9    16 1
   16     7     8 1
   17     7     9 1
   18    26    27 1
   19    26    28 1
   20    22    23 1
   21    22    24 1
   22    22    25 1
   23    20    21 1
   24    20    22 1
   25    20    26 1
   26    18    19 1
   27    18    20 1
   28    37    38 1
   29    37    39 1
   30    35    36 1
   31    32    33 1
   32    32    34 1
   33    32    35 1
   34    30    31 1
   35    30    32 1
   36    30    37 1
   37    28    29 1
   38    28    30 1
   39    41    42 1
   40    41    43 1
   41    41    44 1
   42    39    40 1
   43    39    41 1
@<TRIPOS>SUBSTRUCTURE
      1  ACE              1 ****               0 ****  **** 
      2  SER              7 ****               0 ****  **** 
      3  ALA             18 ****               0 ****  **** 
      4  SER             28 ****               0 ****  **** 
      5  NME             39 ****               0 ****  **** 
