@<TRIPOS>MOLECULE
default_name
   44    43     5     0     1 
SMALL
USER_CHARGES
@<TRIPOS>ATOM
  1 H1     28.926000   32.667000   20.407000 H     1 ACE     0.1123 ****
  2 CH3    28.961000   31.584000   20.520000 C     1 ACE    -0.3662 ****
  3 H2     29.833000   31.193000   20.000000 H     1 ACE     0.1123 ****
  4 H3     28.054000   31.146000   20.108000 H     1 ACE     0.1123 ****
  5 C      29.061000   31.246000   21.988000 C     1 ACE     0.5972 ****
  6 O      29.108000   32.140000   22.825000 O     1 ACE    -0.5679 ****
  7 N      29.108000   29.953000   22.309000 N     2 SER    -0.4157 ****
  8 H      29.116000   29.275000   21.565000 H     2 SER     0.2719 ****
  9 CA     29.300000   29.492000   23.692000 C     2 SER    -0.0249 ****
 10 HA     28.530000   29.955000   24.310000 H     2 SER     0.0843 ****
 11 CB     29.129000   27.977000   23.796000 C     2 SER     0.2117 ****
 12 HB2    28.176000   27.685000   23.353000 H     2 SER     0.0352 ****
 13 HB3    29.943000   27.479000   23.266000 H     2 SER     0.0352 ****
 14 OG     29.144000   27.602000   25.159000 O     2 SER    -0.6546 ****
 15 HG     29.149000   26.641000   25.220000 H     2 SER     0.4275 ****
 16 C      30.671000   29.918000   24.236000 C     2 SER     0.5973 ****
 17 O      31.669000   29.823000   23.523000 O     2 SER    -0.5679 ****
 18 N      30.716000   30.312000   25.513000 N     3 ALA    -0.4157 ****
 19 H      29.880000   30.109000   26.037000 H     3 ALA     0.2719 ****
 20 CA     31.622000   31.278000   26.163000 C     3 ALA     0.0337 ****
 21 HA     31.195000   31.478000   27.147000 H     3 ALA     0.0823 ****
 22 CB     32.964000   30.576000   26.416000 C     3 ALA    -0.1825 ****
 23 HB1    33.465000   30.372000   25.468000 H     3 ALA     0.0603 ****
 24 HB2    33.604000   31.217000   27.023000 H     3 ALA     0.0603 ****
 25 HB3    32.801000   29.636000   26.945000 H     3 ALA     0.0603 ****
 26 C      31.848000   32.687000   25.539000 C     3 ALA     0.5973 ****
 27 O      32.097000   33.608000   26.310000 O     3 ALA    -0.5679 ****
 28 N      31.768000   32.925000   24.224000 N     4 SER    -0.4157 ****
 29 H      31.468000   32.202000   23.604000 H     4 SER     0.2719 ****
 30 CA     32.032000   34.235000   23.600000 C     4 SER    -0.0249 ****
 31 HA     32.907000   34.673000   24.081000 H     4 SER     0.0843 ****
 32 CB     32.367000   34.022000   22.120000 C     4 SER     0.2117 ****
 33 HB2    33.151000   33.269000   22.027000 H     4 SER     0.0352 ****
 34 HB3    31.477000   33.674000   21.592000 H     4 SER     0.0352 ****
 35 OG     32.821000   35.225000   21.535000 O     4 SER    -0.6546 ****
 36 HG     32.247000   35.942000   21.855000 H     4 SER     0.4275 ****
 37 C      30.885000   35.257000   23.728000 C     4 SER     0.5973 ****
 38 O      31.045000   36.399000   23.297000 O     4 SER    -0.5679 ****
 39 N      29.723000   34.861000   24.262000 N     5 NME    -0.4157 ****
 40 H      29.644000   33.890000   24.522000 H     5 NME     0.2719 ****
 41 CH3    28.556000   35.721000   24.436000 C     5 NME    -0.1490 ****
 42 HH31   27.719000   35.143000   24.829000 H     5 NME     0.0976 ****
 43 HH32   28.797000   36.528000   25.131000 H     5 NME     0.0976 ****
 44 HH33   28.274000   36.158000   23.476000 H     5 NME     0.0976 ****
@<TRIPOS>BOND
    1     5     6 1
    2     5     7 1
    3     2     3 1
    4     2     4 1
    5     2     5 1
    6     1     2 1
    7    16    17 1
    8    16    18 1
    9    14    15 1
   10    11    12 1
   11    11    13 1
   12    11    14 1
   13     9    10 1
   14     9    11 1
   15     9    16 1
   16     7     8 1
   17     7     9 1
   18    26    27 1
   19    26    28 1
   20    22    23 1
   21    22    24 1
   22    22    25 1
   23    20    21 1
   24    20    22 1
   25    20    26 1
   26    18    19 1
   27    18    20 1
   28    37    38 1
   29    37    39 1
   30    35    36 1
   31    32    33 1
   32    32    34 1
   33    32    35 1
   34    30    31 1
   35    30    32 1
   36    30    37 1
   37    28    29 1
   38    28    30 1
   39    41    42 1
   40    41    43 1
   41    41    44 1
   42    39    40 1
   43    39    41 1
@<TRIPOS>SUBSTRUCTURE
      1  ACE              1 ****               0 ****  **** 
      2  SER              7 ****               0 ****  **** 
      3  ALA             18 ****               0 ****  **** 
      4  SER             28 ****               0 ****  **** 
      5  NME             39 ****               0 ****  **** 
