@<TRIPOS>MOLECULE
default_name
   44    43     5     0     1 
SMALL
USER_CHARGES
@<TRIPOS>ATOM
  1 H1     29.868000   31.252000   20.452000 H     1 ACE     0.1123 ****
  2 CH3    28.857000   31.251000   20.855000 C     1 ACE    -0.3662 ****
  3 H2     28.206000   30.647000   20.227000 H     1 ACE     0.1123 ****
  4 H3     28.479000   32.272000   20.894000 H     1 ACE     0.1123 ****
  5 C      28.873000   30.682000   22.254000 C     1 ACE     0.5972 ****
  6 O      28.477000   31.357000   23.195000 O     1 ACE    -0.5679 ****
  7 N      29.341000   29.441000   22.390000 N     2 SER    -0.4157 ****
  8 H      29.668000   28.969000   21.563000 H     2 SER     0.2719 ****
  9 CA     29.485000   28.751000   23.681000 C     2 SER    -0.0249 ****
 10 HA     28.524000   28.761000   24.197000 H     2 SER     0.0843 ****
 11 CB     29.869000   27.286000   23.441000 C     2 SER     0.2117 ****
 12 HB2    29.051000   26.780000   22.927000 H     2 SER     0.0352 ****
 13 HB3    30.763000   27.235000   22.818000 H     2 SER     0.0352 ****
 14 OG     30.122000   26.633000   24.666000 O     2 SER    -0.6546 ****
 15 HG     30.985000   26.932000   24.984000 H     2 SER     0.4275 ****
 16 C      30.520000   29.450000   24.573000 C     2 SER     0.5973 ****
 17 O      31.714000   29.200000   24.432000 O     2 SER    -0.5679 ****
 18 N      30.043000   30.327000   25.462000 N     3 ALA    -0.4157 ****
 19 H      29.044000   30.469000   25.452000 H     3 ALA     0.2719 ****
 20 CA     30.823000   31.271000   26.268000 C     3 ALA     0.0337 ****
 21 HA     30.109000   31.879000   26.823000 H     3 ALA     0.0823 ****
 22 CB     31.657000   30.521000   27.320000 C     3 ALA    -0.1825 ****
 23 HB1    32.427000   29.920000   26.834000 H     3 ALA     0.0603 ****
 24 HB2    32.145000   31.241000   27.977000 H     3 ALA     0.0603 ****
 25 HB3    31.014000   29.872000   27.915000 H     3 ALA     0.0603 ****
 26 C      31.619000   32.255000   25.383000 C     3 ALA     0.5973 ****
 27 O      32.839000   32.177000   25.257000 O     3 ALA    -0.5679 ****
 28 N      30.912000   33.221000   24.790000 N     4 SER    -0.4157 ****
 29 H      29.910000   33.246000   24.922000 H     4 SER     0.2719 ****
 30 CA     31.480000   34.271000   23.936000 C     4 SER    -0.0249 ****
 31 HA     32.424000   34.605000   24.367000 H     4 SER     0.0843 ****
 32 CB     31.771000   33.689000   22.546000 C     4 SER     0.2117 ****
 33 HB2    32.382000   32.791000   22.658000 H     4 SER     0.0352 ****
 34 HB3    30.833000   33.418000   22.060000 H     4 SER     0.0352 ****
 35 OG     32.476000   34.619000   21.743000 O     4 SER    -0.6546 ****
 36 HG     32.917000   34.135000   21.038000 H     4 SER     0.4275 ****
 37 C      30.538000   35.484000   23.859000 C     4 SER     0.5973 ****
 38 O      29.401000   35.418000   24.327000 O     4 SER    -0.5679 ****
 39 N      31.009000   36.597000   23.286000 N     5 NME    -0.4157 ****
 40 H      31.920000   36.529000   22.851000 H     5 NME     0.2719 ****
 41 CH3    30.260000   37.845000   23.156000 C     5 NME    -0.1490 ****
 42 HH31   29.981000   38.211000   24.146000 H     5 NME     0.0976 ****
 43 HH32   30.866000   38.597000   22.650000 H     5 NME     0.0976 ****
 44 HH33   29.349000   37.668000   22.581000 H     5 NME     0.0976 ****
@<TRIPOS>BOND
    1     5     6 1
    2     5     7 1
    3     2     3 1
    4     2     4 1
    5     2     5 1
    6     1     2 1
    7    16    17 1
    8    16    18 1
    9    14    15 1
   10    11    12 1
   11    11    13 1
   12    11    14 1
   13     9    10 1
   14     9    11 1
   15     9    16 1
   16     7     8 1
   17     7     9 1
   18    26    27 1
   19    26    28 1
   20    22    23 1
   21    22    24 1
   22    22    25 1
   23    20    21 1
   24    20    22 1
   25    20    26 1
   26    18    19 1
   27    18    20 1
   28    37    38 1
   29    37    39 1
   30    35    36 1
   31    32    33 1
   32    32    34 1
   33    32    35 1
   34    30    31 1
   35    30    32 1
   36    30    37 1
   37    28    29 1
   38    28    30 1
   39    41    42 1
   40    41    43 1
   41    41    44 1
   42    39    40 1
   43    39    41 1
@<TRIPOS>SUBSTRUCTURE
      1  ACE              1 ****               0 ****  **** 
      2  SER              7 ****               0 ****  **** 
      3  ALA             18 ****               0 ****  **** 
      4  SER             28 ****               0 ****  **** 
      5  NME             39 ****               0 ****  **** 
