@<TRIPOS>MOLECULE
default_name
   44    43     5     0     1 
SMALL
USER_CHARGES
@<TRIPOS>ATOM
  1 H1     29.424000   27.841000   20.748000 H     1 ACE     0.1123 ****
  2 CH3    29.312000   28.882000   21.044000 C     1 ACE    -0.3662 ****
  3 H2     28.683000   29.400000   20.321000 H     1 ACE     0.1123 ****
  4 H3     30.287000   29.365000   21.090000 H     1 ACE     0.1123 ****
  5 C      28.656000   28.953000   22.402000 C     1 ACE     0.5972 ****
  6 O      27.615000   29.577000   22.550000 O     1 ACE    -0.5679 ****
  7 N      29.284000   28.333000   23.401000 N     2 SER    -0.4157 ****
  8 H      30.145000   27.858000   23.183000 H     2 SER     0.2719 ****
  9 CA     28.818000   28.309000   24.802000 C     2 SER    -0.0249 ****
 10 HA     27.727000   28.305000   24.789000 H     2 SER     0.0843 ****
 11 CB     29.266000   26.998000   25.464000 C     2 SER     0.2117 ****
 12 HB2    28.974000   26.156000   24.834000 H     2 SER     0.0352 ****
 13 HB3    30.352000   26.997000   25.574000 H     2 SER     0.0352 ****
 14 OG     28.666000   26.843000   26.730000 O     2 SER    -0.6546 ****
 15 HG     28.868000   27.647000   27.238000 H     2 SER     0.4275 ****
 16 C      29.240000   29.549000   25.626000 C     2 SER     0.5973 ****
 17 O      29.332000   29.472000   26.850000 O     2 SER    -0.5679 ****
 18 N      29.517000   30.669000   24.949000 N     3 ALA    -0.4157 ****
 19 H      29.372000   30.616000   23.953000 H     3 ALA     0.2719 ****
 20 CA     30.236000   31.877000   25.377000 C     3 ALA     0.0337 ****
 21 HA     29.546000   32.566000   25.865000 H     3 ALA     0.0823 ****
 22 CB     31.408000   31.551000   26.323000 C     3 ALA    -0.1825 ****
 23 HB1    32.038000   30.773000   25.890000 H     3 ALA     0.0603 ****
 24 HB2    32.011000   32.445000   26.488000 H     3 ALA     0.0603 ****
 25 HB3    31.035000   31.221000   27.293000 H     3 ALA     0.0603 ****
 26 C      30.840000   32.544000   24.124000 C     3 ALA     0.5973 ****
 27 O      31.168000   31.870000   23.145000 O     3 ALA    -0.5679 ****
 28 N      30.957000   33.874000   24.137000 N     4 SER    -0.4157 ****
 29 H      30.709000   34.380000   24.977000 H     4 SER     0.2719 ****
 30 CA     31.565000   34.669000   23.062000 C     4 SER    -0.0249 ****
 31 HA     32.449000   34.146000   22.696000 H     4 SER     0.0843 ****
 32 CB     30.576000   34.822000   21.898000 C     4 SER     0.2117 ****
 33 HB2    30.102000   33.863000   21.685000 H     4 SER     0.0352 ****
 34 HB3    29.803000   35.543000   22.169000 H     4 SER     0.0352 ****
 35 OG     31.256000   35.261000   20.737000 O     4 SER    -0.6546 ****
 36 HG     31.436000   34.491000   20.187000 H     4 SER     0.4275 ****
 37 C      32.015000   36.042000   23.590000 C     4 SER     0.5973 ****
 38 O      31.776000   36.360000   24.756000 O     4 SER    -0.5679 ****
 39 N      32.667000   36.851000   22.748000 N     5 NME    -0.4157 ****
 40 H      32.734000   36.546000   21.785000 H     5 NME     0.2719 ****
 41 CH3    33.176000   38.175000   23.099000 C     5 NME    -0.1490 ****
 42 HH31   33.886000   38.091000   23.924000 H     5 NME     0.0976 ****
 43 HH32   33.673000   38.627000   22.240000 H     5 NME     0.0976 ****
 44 HH33   32.350000   38.815000   23.414000 H     5 NME     0.0976 ****
@<TRIPOS>BOND
    1     5     6 1
    2     5     7 1
    3     2     3 1
    4     2     4 1
    5     2     5 1
    6     1     2 1
    7    16    17 1
    8    16    18 1
    9    14    15 1
   10    11    12 1
   11    11    13 1
   12    11    14 1
   13     9    10 1
   14     9    11 1
   15     9    16 1
   16     7     8 1
   17     7     9 1
   18    26    27 1
   19    26    28 1
   20    22    23 1
   21    22    24 1
   22    22    25 1
   23    20    21 1
   24    20    22 1
   25    20    26 1
   26    18    19 1
   27    18    20 1
   28    37    38 1
   29    37    39 1
   30    35    36 1
   31    32    33 1
   32    32    34 1
   33    32    35 1
   34    30    31 1
   35    30    32 1
   36    30    37 1
   37    28    29 1
   38    28    30 1
   39    41    42 1
   40    41    43 1
   41    41    44 1
   42    39    40 1
   43    39    41 1
@<TRIPOS>SUBSTRUCTURE
      1  ACE              1 ****               0 ****  **** 
      2  SER              7 ****               0 ****  **** 
      3  ALA             18 ****               0 ****  **** 
      4  SER             28 ****               0 ****  **** 
      5  NME             39 ****               0 ****  **** 
