@<TRIPOS>MOLECULE
default_name
   44    43     5     0     1 
SMALL
USER_CHARGES
@<TRIPOS>ATOM
  1 H1     26.680000   26.268000   22.023000 H     1 ACE     0.1123 ****
  2 CH3    26.565000   27.214000   22.549000 C     1 ACE    -0.3662 ****
  3 H2     26.167000   27.032000   23.546000 H     1 ACE     0.1123 ****
  4 H3     25.891000   27.863000   21.993000 H     1 ACE     0.1123 ****
  5 C      27.917000   27.877000   22.665000 C     1 ACE     0.5972 ****
  6 O      28.909000   27.339000   22.193000 O     1 ACE    -0.5679 ****
  7 N      27.953000   29.052000   23.290000 N     2 SER    -0.4157 ****
  8 H      27.099000   29.404000   23.698000 H     2 SER     0.2719 ****
  9 CA     29.181000   29.797000   23.604000 C     2 SER    -0.0249 ****
 10 HA     29.936000   29.092000   23.954000 H     2 SER     0.0843 ****
 11 CB     29.730000   30.477000   22.330000 C     2 SER     0.2117 ****
 12 HB2    29.812000   29.739000   21.531000 H     2 SER     0.0352 ****
 13 HB3    29.040000   31.261000   22.013000 H     2 SER     0.0352 ****
 14 OG     31.017000   31.039000   22.562000 O     2 SER    -0.6546 ****
 15 HG     31.295000   31.558000   21.791000 H     2 SER     0.4275 ****
 16 C      28.919000   30.805000   24.742000 C     2 SER     0.5973 ****
 17 O      27.849000   30.818000   25.347000 O     2 SER    -0.5679 ****
 18 N      29.896000   31.672000   24.992000 N     3 ALA    -0.4157 ****
 19 H      30.671000   31.608000   24.344000 H     3 ALA     0.2719 ****
 20 CA     29.934000   32.756000   25.976000 C     3 ALA     0.0337 ****
 21 HA     28.995000   33.312000   25.948000 H     3 ALA     0.0823 ****
 22 CB     30.128000   32.157000   27.377000 C     3 ALA    -0.1825 ****
 23 HB1    31.051000   31.577000   27.418000 H     3 ALA     0.0603 ****
 24 HB2    30.177000   32.960000   28.112000 H     3 ALA     0.0603 ****
 25 HB3    29.285000   31.509000   27.623000 H     3 ALA     0.0603 ****
 26 C      31.087000   33.721000   25.633000 C     3 ALA     0.5973 ****
 27 O      30.951000   34.933000   25.775000 O     3 ALA    -0.5679 ****
 28 N      32.182000   33.199000   25.061000 N     4 SER    -0.4157 ****
 29 H      32.252000   32.195000   25.011000 H     4 SER     0.2719 ****
 30 CA     33.107000   33.978000   24.232000 C     4 SER    -0.0249 ****
 31 HA     33.379000   34.896000   24.755000 H     4 SER     0.0843 ****
 32 CB     34.391000   33.171000   23.999000 C     4 SER     0.2117 ****
 33 HB2    34.906000   33.035000   24.951000 H     4 SER     0.0352 ****
 34 HB3    34.143000   32.191000   23.588000 H     4 SER     0.0352 ****
 35 OG     35.244000   33.848000   23.101000 O     4 SER    -0.6546 ****
 36 HG     34.882000   33.742000   22.212000 H     4 SER     0.4275 ****
 37 C      32.432000   34.350000   22.902000 C     4 SER     0.5973 ****
 38 O      32.458000   33.572000   21.946000 O     4 SER    -0.5679 ****
 39 N      31.801000   35.528000   22.853000 N     5 NME    -0.4157 ****
 40 H      31.760000   36.069000   23.707000 H     5 NME     0.2719 ****
 41 CH3    31.102000   36.044000   21.678000 C     5 NME    -0.1490 ****
 42 HH31   30.283000   35.374000   21.412000 H     5 NME     0.0976 ****
 43 HH32   30.700000   37.037000   21.887000 H     5 NME     0.0976 ****
 44 HH33   31.793000   36.107000   20.834000 H     5 NME     0.0976 ****
@<TRIPOS>BOND
    1     5     6 1
    2     5     7 1
    3     2     3 1
    4     2     4 1
    5     2     5 1
    6     1     2 1
    7    16    17 1
    8    16    18 1
    9    14    15 1
   10    11    12 1
   11    11    13 1
   12    11    14 1
   13     9    10 1
   14     9    11 1
   15     9    16 1
   16     7     8 1
   17     7     9 1
   18    26    27 1
   19    26    28 1
   20    22    23 1
   21    22    24 1
   22    22    25 1
   23    20    21 1
   24    20    22 1
   25    20    26 1
   26    18    19 1
   27    18    20 1
   28    37    38 1
   29    37    39 1
   30    35    36 1
   31    32    33 1
   32    32    34 1
   33    32    35 1
   34    30    31 1
   35    30    32 1
   36    30    37 1
   37    28    29 1
   38    28    30 1
   39    41    42 1
   40    41    43 1
   41    41    44 1
   42    39    40 1
   43    39    41 1
@<TRIPOS>SUBSTRUCTURE
      1  ACE              1 ****               0 ****  **** 
      2  SER              7 ****               0 ****  **** 
      3  ALA             18 ****               0 ****  **** 
      4  SER             28 ****               0 ****  **** 
      5  NME             39 ****               0 ****  **** 
