@<TRIPOS>MOLECULE
default_name
   44    43     5     0     1 
SMALL
USER_CHARGES
@<TRIPOS>ATOM
  1 H1     25.883000   28.054000   21.433000 H     1 ACE     0.1123 ****
  2 CH3    26.243000   29.041000   21.720000 C     1 ACE    -0.3662 ****
  3 H2     25.480000   29.552000   22.305000 H     1 ACE     0.1123 ****
  4 H3     26.476000   29.618000   20.827000 H     1 ACE     0.1123 ****
  5 C      27.492000   28.882000   22.555000 C     1 ACE     0.5972 ****
  6 O      27.935000   27.769000   22.800000 O     1 ACE    -0.5679 ****
  7 N      28.069000   30.000000   22.990000 N     2 SER    -0.4157 ****
  8 H      27.649000   30.888000   22.753000 H     2 SER     0.2719 ****
  9 CA     29.264000   30.034000   23.842000 C     2 SER    -0.0249 ****
 10 HA     29.196000   29.234000   24.580000 H     2 SER     0.0843 ****
 11 CB     30.517000   29.799000   22.988000 C     2 SER     0.2117 ****
 12 HB2    30.475000   28.795000   22.564000 H     2 SER     0.0352 ****
 13 HB3    30.542000   30.524000   22.172000 H     2 SER     0.0352 ****
 14 OG     31.697000   29.933000   23.762000 O     2 SER    -0.6546 ****
 15 HG     32.375000   29.372000   23.365000 H     2 SER     0.4275 ****
 16 C      29.375000   31.370000   24.578000 C     2 SER     0.5973 ****
 17 O      28.987000   32.407000   24.042000 O     2 SER    -0.5679 ****
 18 N      29.960000   31.364000   25.781000 N     3 ALA    -0.4157 ****
 19 H      30.270000   30.480000   26.152000 H     3 ALA     0.2719 ****
 20 CA     30.379000   32.581000   26.485000 C     3 ALA     0.0337 ****
 21 HA     29.500000   33.210000   26.639000 H     3 ALA     0.0823 ****
 22 CB     30.922000   32.169000   27.858000 C     3 ALA    -0.1825 ****
 23 HB1    31.809000   31.544000   27.740000 H     3 ALA     0.0603 ****
 24 HB2    31.192000   33.062000   28.425000 H     3 ALA     0.0603 ****
 25 HB3    30.160000   31.620000   28.413000 H     3 ALA     0.0603 ****
 26 C      31.409000   33.436000   25.707000 C     3 ALA     0.5973 ****
 27 O      31.609000   34.600000   26.037000 O     3 ALA    -0.5679 ****
 28 N      32.027000   32.891000   24.651000 N     4 SER    -0.4157 ****
 29 H      31.821000   31.923000   24.437000 H     4 SER     0.2719 ****
 30 CA     32.958000   33.602000   23.759000 C     4 SER    -0.0249 ****
 31 HA     33.589000   34.244000   24.375000 H     4 SER     0.0843 ****
 32 CB     33.870000   32.576000   23.073000 C     4 SER     0.2117 ****
 33 HB2    34.301000   31.913000   23.825000 H     4 SER     0.0352 ****
 34 HB3    33.283000   31.981000   22.372000 H     4 SER     0.0352 ****
 35 OG     34.919000   33.215000   22.381000 O     4 SER    -0.6546 ****
 36 HG     34.518000   33.921000   21.844000 H     4 SER     0.4275 ****
 37 C      32.273000   34.517000   22.719000 C     4 SER     0.5973 ****
 38 O      32.929000   34.969000   21.779000 O     4 SER    -0.5679 ****
 39 N      30.961000   34.757000   22.836000 N     5 NME    -0.4157 ****
 40 H      30.481000   34.358000   23.630000 H     5 NME     0.2719 ****
 41 CH3    30.184000   35.584000   21.916000 C     5 NME    -0.1490 ****
 42 HH31   30.326000   35.232000   20.892000 H     5 NME     0.0976 ****
 43 HH32   29.125000   35.532000   22.172000 H     5 NME     0.0976 ****
 44 HH33   30.521000   36.620000   21.981000 H     5 NME     0.0976 ****
@<TRIPOS>BOND
    1     5     6 1
    2     5     7 1
    3     2     3 1
    4     2     4 1
    5     2     5 1
    6     1     2 1
    7    16    17 1
    8    16    18 1
    9    14    15 1
   10    11    12 1
   11    11    13 1
   12    11    14 1
   13     9    10 1
   14     9    11 1
   15     9    16 1
   16     7     8 1
   17     7     9 1
   18    26    27 1
   19    26    28 1
   20    22    23 1
   21    22    24 1
   22    22    25 1
   23    20    21 1
   24    20    22 1
   25    20    26 1
   26    18    19 1
   27    18    20 1
   28    37    38 1
   29    37    39 1
   30    35    36 1
   31    32    33 1
   32    32    34 1
   33    32    35 1
   34    30    31 1
   35    30    32 1
   36    30    37 1
   37    28    29 1
   38    28    30 1
   39    41    42 1
   40    41    43 1
   41    41    44 1
   42    39    40 1
   43    39    41 1
@<TRIPOS>SUBSTRUCTURE
      1  ACE              1 ****               0 ****  **** 
      2  SER              7 ****               0 ****  **** 
      3  ALA             18 ****               0 ****  **** 
      4  SER             28 ****               0 ****  **** 
      5  NME             39 ****               0 ****  **** 
