@<TRIPOS>MOLECULE
default_name
   44    43     5     0     1 
SMALL
USER_CHARGES
@<TRIPOS>ATOM
  1 H1     25.107000   28.290000   23.389000 H     1 ACE     0.1123 ****
  2 CH3    25.980000   28.218000   22.742000 C     1 ACE    -0.3662 ****
  3 H2     25.906000   28.959000   21.948000 H     1 ACE     0.1123 ****
  4 H3     26.036000   27.218000   22.316000 H     1 ACE     0.1123 ****
  5 C      27.220000   28.484000   23.563000 C     1 ACE     0.5972 ****
  6 O      27.127000   28.732000   24.758000 O     1 ACE    -0.5679 ****
  7 N      28.386000   28.434000   22.921000 N     2 SER    -0.4157 ****
  8 H      28.376000   28.248000   21.932000 H     2 SER     0.2719 ****
  9 CA     29.675000   28.719000   23.565000 C     2 SER    -0.0249 ****
 10 HA     29.715000   28.196000   24.521000 H     2 SER     0.0843 ****
 11 CB     30.822000   28.182000   22.701000 C     2 SER     0.2117 ****
 12 HB2    30.712000   27.102000   22.590000 H     2 SER     0.0352 ****
 13 HB3    30.792000   28.644000   21.713000 H     2 SER     0.0352 ****
 14 OG     32.066000   28.457000   23.310000 O     2 SER    -0.6546 ****
 15 HG     32.223000   29.409000   23.270000 H     2 SER     0.4275 ****
 16 C      29.852000   30.219000   23.832000 C     2 SER     0.5973 ****
 17 O      30.292000   30.953000   22.947000 O     2 SER    -0.5679 ****
 18 N      29.504000   30.665000   25.044000 N     3 ALA    -0.4157 ****
 19 H      29.069000   29.999000   25.665000 H     3 ALA     0.2719 ****
 20 CA     29.815000   31.984000   25.606000 C     3 ALA     0.0337 ****
 21 HA     29.013000   32.661000   25.309000 H     3 ALA     0.0823 ****
 22 CB     29.787000   31.879000   27.136000 C     3 ALA    -0.1825 ****
 23 HB1    30.565000   31.195000   27.476000 H     3 ALA     0.0603 ****
 24 HB2    29.964000   32.863000   27.574000 H     3 ALA     0.0603 ****
 25 HB3    28.814000   31.515000   27.468000 H     3 ALA     0.0603 ****
 26 C      31.143000   32.584000   25.093000 C     3 ALA     0.5973 ****
 27 O      32.213000   32.011000   25.299000 O     3 ALA    -0.5679 ****
 28 N      31.075000   33.735000   24.419000 N     4 SER    -0.4157 ****
 29 H      30.177000   34.181000   24.295000 H     4 SER     0.2719 ****
 30 CA     32.233000   34.430000   23.847000 C     4 SER    -0.0249 ****
 31 HA     33.055000   34.386000   24.561000 H     4 SER     0.0843 ****
 32 CB     32.671000   33.720000   22.558000 C     4 SER     0.2117 ****
 33 HB2    32.663000   32.639000   22.705000 H     4 SER     0.0352 ****
 34 HB3    31.978000   33.967000   21.752000 H     4 SER     0.0352 ****
 35 OG     33.983000   34.122000   22.207000 O     4 SER    -0.6546 ****
 36 HG     34.595000   33.475000   22.576000 H     4 SER     0.4275 ****
 37 C      31.913000   35.910000   23.581000 C     4 SER     0.5973 ****
 38 O      30.780000   36.345000   23.791000 O     4 SER    -0.5679 ****
 39 N      32.903000   36.686000   23.127000 N     5 NME    -0.4157 ****
 40 H      33.772000   36.222000   22.895000 H     5 NME     0.2719 ****
 41 CH3    32.774000   38.113000   22.842000 C     5 NME    -0.1490 ****
 42 HH31   32.471000   38.644000   23.747000 H     5 NME     0.0976 ****
 43 HH32   33.724000   38.515000   22.489000 H     5 NME     0.0976 ****
 44 HH33   32.011000   38.267000   22.076000 H     5 NME     0.0976 ****
@<TRIPOS>BOND
    1     5     6 1
    2     5     7 1
    3     2     3 1
    4     2     4 1
    5     2     5 1
    6     1     2 1
    7    16    17 1
    8    16    18 1
    9    14    15 1
   10    11    12 1
   11    11    13 1
   12    11    14 1
   13     9    10 1
   14     9    11 1
   15     9    16 1
   16     7     8 1
   17     7     9 1
   18    26    27 1
   19    26    28 1
   20    22    23 1
   21    22    24 1
   22    22    25 1
   23    20    21 1
   24    20    22 1
   25    20    26 1
   26    18    19 1
   27    18    20 1
   28    37    38 1
   29    37    39 1
   30    35    36 1
   31    32    33 1
   32    32    34 1
   33    32    35 1
   34    30    31 1
   35    30    32 1
   36    30    37 1
   37    28    29 1
   38    28    30 1
   39    41    42 1
   40    41    43 1
   41    41    44 1
   42    39    40 1
   43    39    41 1
@<TRIPOS>SUBSTRUCTURE
      1  ACE              1 ****               0 ****  **** 
      2  SER              7 ****               0 ****  **** 
      3  ALA             18 ****               0 ****  **** 
      4  SER             28 ****               0 ****  **** 
      5  NME             39 ****               0 ****  **** 
