@<TRIPOS>MOLECULE
default_name
   44    43     5     0     1 
SMALL
USER_CHARGES
@<TRIPOS>ATOM
  1 H1     26.308000   26.886000   21.718000 H     1 ACE     0.1123 ****
  2 CH3    26.306000   27.841000   22.242000 C     1 ACE    -0.3662 ****
  3 H2     25.751000   27.745000   23.174000 H     1 ACE     0.1123 ****
  4 H3     25.848000   28.602000   21.613000 H     1 ACE     0.1123 ****
  5 C      27.731000   28.235000   22.548000 C     1 ACE     0.5972 ****
  6 O      28.657000   27.514000   22.204000 O     1 ACE    -0.5679 ****
  7 N      27.907000   29.387000   23.192000 N     2 SER    -0.4157 ****
  8 H      27.092000   29.913000   23.474000 H     2 SER     0.2719 ****
  9 CA     29.207000   29.905000   23.640000 C     2 SER    -0.0249 ****
 10 HA     29.803000   29.077000   24.023000 H     2 SER     0.0843 ****
 11 CB     29.963000   30.530000   22.451000 C     2 SER     0.2117 ****
 12 HB2    30.049000   29.796000   21.648000 H     2 SER     0.0352 ****
 13 HB3    29.399000   31.388000   22.082000 H     2 SER     0.0352 ****
 14 OG     31.265000   30.953000   22.828000 O     2 SER    -0.6546 ****
 15 HG     31.563000   31.633000   22.195000 H     2 SER     0.4275 ****
 16 C      29.023000   30.931000   24.769000 C     2 SER     0.5973 ****
 17 O      27.910000   31.379000   25.040000 O     2 SER    -0.5679 ****
 18 N      30.136000   31.343000   25.372000 N     3 ALA    -0.4157 ****
 19 H      30.985000   30.921000   25.030000 H     3 ALA     0.2719 ****
 20 CA     30.251000   32.495000   26.272000 C     3 ALA     0.0337 ****
 21 HA     29.285000   32.999000   26.348000 H     3 ALA     0.0823 ****
 22 CB     30.641000   31.990000   27.666000 C     3 ALA    -0.1825 ****
 23 HB1    31.605000   31.481000   27.629000 H     3 ALA     0.0603 ****
 24 HB2    30.709000   32.835000   28.352000 H     3 ALA     0.0603 ****
 25 HB3    29.881000   31.299000   28.033000 H     3 ALA     0.0603 ****
 26 C      31.260000   33.523000   25.718000 C     3 ALA     0.5973 ****
 27 O      31.069000   34.727000   25.867000 O     3 ALA    -0.5679 ****
 28 N      32.292000   33.062000   24.998000 N     4 SER    -0.4157 ****
 29 H      32.384000   32.065000   24.894000 H     4 SER     0.2719 ****
 30 CA     33.059000   33.897000   24.068000 C     4 SER    -0.0249 ****
 31 HA     33.302000   34.848000   24.544000 H     4 SER     0.0843 ****
 32 CB     34.376000   33.198000   23.714000 C     4 SER     0.2117 ****
 33 HB2    34.995000   33.126000   24.610000 H     4 SER     0.0352 ****
 34 HB3    34.174000   32.191000   23.343000 H     4 SER     0.0352 ****
 35 OG     35.073000   33.925000   22.725000 O     4 SER    -0.6546 ****
 36 HG     34.640000   33.768000   21.877000 H     4 SER     0.4275 ****
 37 C      32.215000   34.176000   22.815000 C     4 SER     0.5973 ****
 38 O      32.210000   33.375000   21.876000 O     4 SER    -0.5679 ****
 39 N      31.468000   35.285000   22.821000 N     5 NME    -0.4157 ****
 40 H      31.467000   35.838000   23.668000 H     5 NME     0.2719 ****
 41 CH3    30.590000   35.696000   21.728000 C     5 NME    -0.1490 ****
 42 HH31   29.793000   34.961000   21.598000 H     5 NME     0.0976 ****
 43 HH32   30.146000   36.668000   21.950000 H     5 NME     0.0976 ****
 44 HH33   31.160000   35.766000   20.800000 H     5 NME     0.0976 ****
@<TRIPOS>BOND
    1     5     6 1
    2     5     7 1
    3     2     3 1
    4     2     4 1
    5     2     5 1
    6     1     2 1
    7    16    17 1
    8    16    18 1
    9    14    15 1
   10    11    12 1
   11    11    13 1
   12    11    14 1
   13     9    10 1
   14     9    11 1
   15     9    16 1
   16     7     8 1
   17     7     9 1
   18    26    27 1
   19    26    28 1
   20    22    23 1
   21    22    24 1
   22    22    25 1
   23    20    21 1
   24    20    22 1
   25    20    26 1
   26    18    19 1
   27    18    20 1
   28    37    38 1
   29    37    39 1
   30    35    36 1
   31    32    33 1
   32    32    34 1
   33    32    35 1
   34    30    31 1
   35    30    32 1
   36    30    37 1
   37    28    29 1
   38    28    30 1
   39    41    42 1
   40    41    43 1
   41    41    44 1
   42    39    40 1
   43    39    41 1
@<TRIPOS>SUBSTRUCTURE
      1  ACE              1 ****               0 ****  **** 
      2  SER              7 ****               0 ****  **** 
      3  ALA             18 ****               0 ****  **** 
      4  SER             28 ****               0 ****  **** 
      5  NME             39 ****               0 ****  **** 
