@<TRIPOS>MOLECULE
default_name
   44    43     5     0     1 
SMALL
USER_CHARGES
@<TRIPOS>ATOM
  1 H1     27.155000   32.742000   22.437000 H     1 ACE     0.1123 ****
  2 CH3    27.599000   31.854000   21.989000 C     1 ACE    -0.3662 ****
  3 H2     28.462000   32.150000   21.396000 H     1 ACE     0.1123 ****
  4 H3     26.867000   31.357000   21.356000 H     1 ACE     0.1123 ****
  5 C      28.025000   30.913000   23.089000 C     1 ACE     0.5972 ****
  6 O      27.606000   31.065000   24.228000 O     1 ACE    -0.5679 ****
  7 N      28.866000   29.935000   22.753000 N     2 SER    -0.4157 ****
  8 H      29.167000   29.898000   21.792000 H     2 SER     0.2719 ****
  9 CA     29.212000   28.796000   23.629000 C     2 SER    -0.0249 ****
 10 HA     28.285000   28.453000   24.093000 H     2 SER     0.0843 ****
 11 CB     29.740000   27.640000   22.767000 C     2 SER     0.2117 ****
 12 HB2    29.071000   27.482000   21.920000 H     2 SER     0.0352 ****
 13 HB3    30.734000   27.890000   22.392000 H     2 SER     0.0352 ****
 14 OG     29.806000   26.447000   23.515000 O     2 SER    -0.6546 ****
 15 HG     30.250000   26.653000   24.356000 H     2 SER     0.4275 ****
 16 C      30.186000   29.097000   24.791000 C     2 SER     0.5973 ****
 17 O      30.592000   28.162000   25.478000 O     2 SER    -0.5679 ****
 18 N      30.558000   30.369000   24.997000 N     3 ALA    -0.4157 ****
 19 H      30.074000   31.041000   24.429000 H     3 ALA     0.2719 ****
 20 CA     31.452000   30.919000   26.042000 C     3 ALA     0.0337 ****
 21 HA     30.948000   30.890000   27.009000 H     3 ALA     0.0823 ****
 22 CB     32.758000   30.097000   26.117000 C     3 ALA    -0.1825 ****
 23 HB1    33.207000   30.007000   25.127000 H     3 ALA     0.0603 ****
 24 HB2    33.469000   30.585000   26.785000 H     3 ALA     0.0603 ****
 25 HB3    32.570000   29.106000   26.526000 H     3 ALA     0.0603 ****
 26 C      31.873000   32.384000   25.754000 C     3 ALA     0.5973 ****
 27 O      32.573000   32.997000   26.556000 O     3 ALA    -0.5679 ****
 28 N      31.420000   32.979000   24.645000 N     4 SER    -0.4157 ****
 29 H      30.855000   32.447000   24.002000 H     4 SER     0.2719 ****
 30 CA     31.595000   34.393000   24.291000 C     4 SER    -0.0249 ****
 31 HA     31.367000   35.009000   25.161000 H     4 SER     0.0843 ****
 32 CB     33.047000   34.665000   23.873000 C     4 SER     0.2117 ****
 33 HB2    33.719000   34.351000   24.673000 H     4 SER     0.0352 ****
 34 HB3    33.281000   34.095000   22.972000 H     4 SER     0.0352 ****
 35 OG     33.243000   36.044000   23.628000 O     4 SER    -0.6546 ****
 36 HG     34.189000   36.209000   23.557000 H     4 SER     0.4275 ****
 37 C      30.621000   34.760000   23.162000 C     4 SER     0.5973 ****
 38 O      30.090000   33.866000   22.499000 O     4 SER    -0.5679 ****
 39 N      30.377000   36.057000   22.944000 N     5 NME    -0.4157 ****
 40 H      30.928000   36.718000   23.474000 H     5 NME     0.2719 ****
 41 CH3    29.455000   36.568000   21.932000 C     5 NME    -0.1490 ****
 42 HH31   29.425000   37.658000   21.968000 H     5 NME     0.0976 ****
 43 HH32   29.784000   36.250000   20.941000 H     5 NME     0.0976 ****
 44 HH33   28.453000   36.174000   22.113000 H     5 NME     0.0976 ****
@<TRIPOS>BOND
    1     5     6 1
    2     5     7 1
    3     2     3 1
    4     2     4 1
    5     2     5 1
    6     1     2 1
    7    16    17 1
    8    16    18 1
    9    14    15 1
   10    11    12 1
   11    11    13 1
   12    11    14 1
   13     9    10 1
   14     9    11 1
   15     9    16 1
   16     7     8 1
   17     7     9 1
   18    26    27 1
   19    26    28 1
   20    22    23 1
   21    22    24 1
   22    22    25 1
   23    20    21 1
   24    20    22 1
   25    20    26 1
   26    18    19 1
   27    18    20 1
   28    37    38 1
   29    37    39 1
   30    35    36 1
   31    32    33 1
   32    32    34 1
   33    32    35 1
   34    30    31 1
   35    30    32 1
   36    30    37 1
   37    28    29 1
   38    28    30 1
   39    41    42 1
   40    41    43 1
   41    41    44 1
   42    39    40 1
   43    39    41 1
@<TRIPOS>SUBSTRUCTURE
      1  ACE              1 ****               0 ****  **** 
      2  SER              7 ****               0 ****  **** 
      3  ALA             18 ****               0 ****  **** 
      4  SER             28 ****               0 ****  **** 
      5  NME             39 ****               0 ****  **** 
