@<TRIPOS>MOLECULE
default_name
   42    41     5     0     1 
SMALL
USER_CHARGES
@<TRIPOS>ATOM
  1 H1     25.231000   29.519000   23.042000 H     1 ACE     0.1123 ****
  2 CH3    26.185000   29.390000   22.532000 C     1 ACE    -0.3662 ****
  3 H2     26.491000   30.334000   22.086000 H     1 ACE     0.1123 ****
  4 H3     26.081000   28.629000   21.760000 H     1 ACE     0.1123 ****
  5 C      27.220000   28.943000   23.537000 C     1 ACE     0.5972 ****
  6 O      26.911000   28.788000   24.709000 O     1 ACE    -0.5679 ****
  7 N      28.456000   28.760000   23.076000 N     2 ALA    -0.4157 ****
  8 H      28.620000   28.912000   22.095000 H     2 ALA     0.2719 ****
  9 CA     29.587000   28.257000   23.869000 C     2 ALA     0.0337 ****
 10 HA     29.197000   27.528000   24.582000 H     2 ALA     0.0823 ****
 11 CB     30.528000   27.509000   22.913000 C     2 ALA    -0.1825 ****
 12 HB1    30.981000   28.210000   22.210000 H     2 ALA     0.0603 ****
 13 HB2    31.321000   27.023000   23.484000 H     2 ALA     0.0603 ****
 14 HB3    29.977000   26.744000   22.365000 H     2 ALA     0.0603 ****
 15 C      30.327000   29.326000   24.717000 C     2 ALA     0.5973 ****
 16 O      31.474000   29.107000   25.089000 O     2 ALA    -0.5679 ****
 17 N      29.673000   30.458000   25.019000 N     3 ALA    -0.4157 ****
 18 H      28.704000   30.489000   24.753000 H     3 ALA     0.2719 ****
 19 CA     30.229000   31.699000   25.578000 C     3 ALA     0.0337 ****
 20 HA     29.400000   32.406000   25.614000 H     3 ALA     0.0823 ****
 21 CB     30.651000   31.483000   27.039000 C     3 ALA    -0.1825 ****
 22 HB1    31.510000   30.812000   27.085000 H     3 ALA     0.0603 ****
 23 HB2    30.929000   32.437000   27.486000 H     3 ALA     0.0603 ****
 24 HB3    29.826000   31.049000   27.606000 H     3 ALA     0.0603 ****
 25 C      31.332000   32.367000   24.722000 C     3 ALA     0.5973 ****
 26 O      32.401000   31.821000   24.473000 O     3 ALA    -0.5679 ****
 27 N      31.064000   33.597000   24.273000 N     4 ALA    -0.4157 ****
 28 H      30.195000   34.038000   24.536000 H     4 ALA     0.2719 ****
 29 CA     31.984000   34.416000   23.482000 C     4 ALA     0.0337 ****
 30 HA     33.007000   34.212000   23.804000 H     4 ALA     0.0823 ****
 31 CB     31.850000   34.028000   22.002000 C     4 ALA    -0.1825 ****
 32 HB1    30.833000   34.220000   21.657000 H     4 ALA     0.0603 ****
 33 HB2    32.548000   34.611000   21.400000 H     4 ALA     0.0603 ****
 34 HB3    32.080000   32.969000   21.875000 H     4 ALA     0.0603 ****
 35 C      31.705000   35.914000   23.701000 C     4 ALA     0.5973 ****
 36 O      30.608000   36.287000   24.117000 O     4 ALA    -0.5679 ****
 37 N      32.692000   36.769000   23.405000 N     5 NME    -0.4157 ****
 38 H      33.561000   36.387000   23.065000 H     5 NME     0.2719 ****
 39 CH3    32.588000   38.220000   23.550000 C     5 NME    -0.1490 ****
 40 HH31   32.379000   38.472000   24.592000 H     5 NME     0.0976 ****
 41 HH32   33.518000   38.700000   23.244000 H     5 NME     0.0976 ****
 42 HH33   31.769000   38.594000   22.932000 H     5 NME     0.0976 ****
@<TRIPOS>BOND
    1     5     6 1
    2     5     7 1
    3     2     3 1
    4     2     4 1
    5     2     5 1
    6     1     2 1
    7    15    16 1
    8    15    17 1
    9    11    12 1
   10    11    13 1
   11    11    14 1
   12     9    10 1
   13     9    11 1
   14     9    15 1
   15     7     8 1
   16     7     9 1
   17    25    26 1
   18    25    27 1
   19    21    22 1
   20    21    23 1
   21    21    24 1
   22    19    20 1
   23    19    21 1
   24    19    25 1
   25    17    18 1
   26    17    19 1
   27    35    36 1
   28    35    37 1
   29    31    32 1
   30    31    33 1
   31    31    34 1
   32    29    30 1
   33    29    31 1
   34    29    35 1
   35    27    28 1
   36    27    29 1
   37    39    40 1
   38    39    41 1
   39    39    42 1
   40    37    38 1
   41    37    39 1
@<TRIPOS>SUBSTRUCTURE
      1  ACE              1 ****               0 ****  **** 
      2  ALA              7 ****               0 ****  **** 
      3  ALA             17 ****               0 ****  **** 
      4  ALA             27 ****               0 ****  **** 
      5  NME             37 ****               0 ****  **** 
