@<TRIPOS>MOLECULE
default_name
   42    41     5     0     1 
SMALL
USER_CHARGES
@<TRIPOS>ATOM
  1 H1     25.160000   27.417000   24.319000 H     1 ACE     0.1123 ****
  2 CH3    25.977000   27.277000   23.612000 C     1 ACE    -0.3662 ****
  3 H2     25.718000   27.736000   22.660000 H     1 ACE     0.1123 ****
  4 H3     26.162000   26.213000   23.475000 H     1 ACE     0.1123 ****
  5 C      27.219000   27.936000   24.163000 C     1 ACE     0.5972 ****
  6 O      27.186000   28.507000   25.246000 O     1 ACE    -0.5679 ****
  7 N      28.319000   27.855000   23.418000 N     2 ALA    -0.4157 ****
  8 H      28.264000   27.391000   22.526000 H     2 ALA     0.2719 ****
  9 CA     29.585000   28.497000   23.770000 C     2 ALA     0.0337 ****
 10 HA     29.776000   28.342000   24.833000 H     2 ALA     0.0823 ****
 11 CB     30.713000   27.809000   22.988000 C     2 ALA    -0.1825 ****
 12 HB1    30.549000   27.921000   21.915000 H     2 ALA     0.0603 ****
 13 HB2    31.667000   28.272000   23.247000 H     2 ALA     0.0603 ****
 14 HB3    30.751000   26.750000   23.242000 H     2 ALA     0.0603 ****
 15 C      29.533000   30.018000   23.516000 C     2 ALA     0.5973 ****
 16 O      29.739000   30.475000   22.392000 O     2 ALA    -0.5679 ****
 17 N      29.179000   30.794000   24.546000 N     3 ALA    -0.4157 ****
 18 H      28.880000   30.322000   25.385000 H     3 ALA     0.2719 ****
 19 CA     29.489000   32.222000   24.676000 C     3 ALA     0.0337 ****
 20 HA     28.722000   32.766000   24.124000 H     3 ALA     0.0823 ****
 21 CB     29.358000   32.600000   26.159000 C     3 ALA    -0.1825 ****
 22 HB1    30.118000   32.078000   26.742000 H     3 ALA     0.0603 ****
 23 HB2    29.491000   33.675000   26.283000 H     3 ALA     0.0603 ****
 24 HB3    28.368000   32.325000   26.527000 H     3 ALA     0.0603 ****
 25 C      30.854000   32.665000   24.089000 C     3 ALA     0.5973 ****
 26 O      31.795000   31.879000   23.977000 O     3 ALA    -0.5679 ****
 27 N      31.016000   33.975000   23.890000 N     4 ALA    -0.4157 ****
 28 H      30.248000   34.599000   24.089000 H     4 ALA     0.2719 ****
 29 CA     32.254000   34.604000   23.428000 C     4 ALA     0.0337 ****
 30 HA     33.105000   34.045000   23.821000 H     4 ALA     0.0823 ****
 31 CB     32.296000   34.539000   21.893000 C     4 ALA    -0.1825 ****
 32 HB1    31.454000   35.093000   21.474000 H     4 ALA     0.0603 ****
 33 HB2    33.227000   34.971000   21.526000 H     4 ALA     0.0603 ****
 34 HB3    32.239000   33.500000   21.566000 H     4 ALA     0.0603 ****
 35 C      32.360000   36.053000   23.939000 C     4 ALA     0.5973 ****
 36 O      31.359000   36.650000   24.335000 O     4 ALA    -0.5679 ****
 37 N      33.574000   36.618000   23.919000 N     5 NME    -0.4157 ****
 38 H      34.345000   36.067000   23.574000 H     5 NME     0.2719 ****
 39 CH3    33.847000   37.984000   24.362000 C     5 NME    -0.1490 ****
 40 HH31   33.565000   38.095000   25.411000 H     5 NME     0.0976 ****
 41 HH32   34.907000   38.216000   24.248000 H     5 NME     0.0976 ****
 42 HH33   33.259000   38.688000   23.769000 H     5 NME     0.0976 ****
@<TRIPOS>BOND
    1     5     6 1
    2     5     7 1
    3     2     3 1
    4     2     4 1
    5     2     5 1
    6     1     2 1
    7    15    16 1
    8    15    17 1
    9    11    12 1
   10    11    13 1
   11    11    14 1
   12     9    10 1
   13     9    11 1
   14     9    15 1
   15     7     8 1
   16     7     9 1
   17    25    26 1
   18    25    27 1
   19    21    22 1
   20    21    23 1
   21    21    24 1
   22    19    20 1
   23    19    21 1
   24    19    25 1
   25    17    18 1
   26    17    19 1
   27    35    36 1
   28    35    37 1
   29    31    32 1
   30    31    33 1
   31    31    34 1
   32    29    30 1
   33    29    31 1
   34    29    35 1
   35    27    28 1
   36    27    29 1
   37    39    40 1
   38    39    41 1
   39    39    42 1
   40    37    38 1
   41    37    39 1
@<TRIPOS>SUBSTRUCTURE
      1  ACE              1 ****               0 ****  **** 
      2  ALA              7 ****               0 ****  **** 
      3  ALA             17 ****               0 ****  **** 
      4  ALA             27 ****               0 ****  **** 
      5  NME             37 ****               0 ****  **** 
