@<TRIPOS>MOLECULE
default_name
   42    41     5     0     1 
SMALL
USER_CHARGES
@<TRIPOS>ATOM
  1 H1     25.850000   25.264000   24.170000 H     1 ACE     0.1123 ****
  2 CH3    25.963000   26.266000   23.760000 C     1 ACE    -0.3662 ****
  3 H2     25.239000   26.934000   24.222000 H     1 ACE     0.1123 ****
  4 H3     25.810000   26.240000   22.683000 H     1 ACE     0.1123 ****
  5 C      27.360000   26.761000   24.054000 C     1 ACE     0.5972 ****
  6 O      28.147000   26.050000   24.665000 O     1 ACE    -0.5679 ****
  7 N      27.661000   27.983000   23.622000 N     2 ALA    -0.4157 ****
  8 H      26.946000   28.523000   23.158000 H     2 ALA     0.2719 ****
  9 CA     28.947000   28.648000   23.831000 C     2 ALA     0.0337 ****
 10 HA     29.355000   28.335000   24.793000 H     2 ALA     0.0823 ****
 11 CB     29.919000   28.214000   22.724000 C     2 ALA    -0.1825 ****
 12 HB1    29.533000   28.515000   21.749000 H     2 ALA     0.0603 ****
 13 HB2    30.894000   28.676000   22.882000 H     2 ALA     0.0603 ****
 14 HB3    30.039000   27.129000   22.744000 H     2 ALA     0.0603 ****
 15 C      28.777000   30.179000   23.864000 C     2 ALA     0.5973 ****
 16 O      27.776000   30.708000   23.382000 O     2 ALA    -0.5679 ****
 17 N      29.766000   30.887000   24.414000 N     3 ALA    -0.4157 ****
 18 H      30.579000   30.400000   24.761000 H     3 ALA     0.2719 ****
 19 CA     29.793000   32.347000   24.517000 C     3 ALA     0.0337 ****
 20 HA     29.228000   32.770000   23.685000 H     3 ALA     0.0823 ****
 21 CB     29.115000   32.774000   25.826000 C     3 ALA    -0.1825 ****
 22 HB1    29.657000   32.361000   26.678000 H     3 ALA     0.0603 ****
 23 HB2    29.107000   33.862000   25.900000 H     3 ALA     0.0603 ****
 24 HB3    28.086000   32.412000   25.843000 H     3 ALA     0.0603 ****
 25 C      31.236000   32.873000   24.423000 C     3 ALA     0.5973 ****
 26 O      32.173000   32.196000   24.843000 O     3 ALA    -0.5679 ****
 27 N      31.412000   34.076000   23.871000 N     4 ALA    -0.4157 ****
 28 H      30.602000   34.605000   23.580000 H     4 ALA     0.2719 ****
 29 CA     32.706000   34.743000   23.716000 C     4 ALA     0.0337 ****
 30 HA     33.349000   34.469000   24.554000 H     4 ALA     0.0823 ****
 31 CB     33.362000   34.256000   22.416000 C     4 ALA    -0.1825 ****
 32 HB1    32.735000   34.517000   21.562000 H     4 ALA     0.0603 ****
 33 HB2    34.341000   34.720000   22.296000 H     4 ALA     0.0603 ****
 34 HB3    33.491000   33.173000   22.449000 H     4 ALA     0.0603 ****
 35 C      32.538000   36.274000   23.728000 C     4 ALA     0.5973 ****
 36 O      31.438000   36.781000   23.508000 O     4 ALA    -0.5679 ****
 37 N      33.632000   37.007000   23.975000 N     5 NME    -0.4157 ****
 38 H      34.499000   36.521000   24.140000 H     5 NME     0.2719 ****
 39 CH3    33.643000   38.468000   24.015000 C     5 NME    -0.1490 ****
 40 HH31   32.957000   38.821000   24.788000 H     5 NME     0.0976 ****
 41 HH32   34.648000   38.834000   24.232000 H     5 NME     0.0976 ****
 42 HH33   33.315000   38.866000   23.053000 H     5 NME     0.0976 ****
@<TRIPOS>BOND
    1     5     6 1
    2     5     7 1
    3     2     3 1
    4     2     4 1
    5     2     5 1
    6     1     2 1
    7    15    16 1
    8    15    17 1
    9    11    12 1
   10    11    13 1
   11    11    14 1
   12     9    10 1
   13     9    11 1
   14     9    15 1
   15     7     8 1
   16     7     9 1
   17    25    26 1
   18    25    27 1
   19    21    22 1
   20    21    23 1
   21    21    24 1
   22    19    20 1
   23    19    21 1
   24    19    25 1
   25    17    18 1
   26    17    19 1
   27    35    36 1
   28    35    37 1
   29    31    32 1
   30    31    33 1
   31    31    34 1
   32    29    30 1
   33    29    31 1
   34    29    35 1
   35    27    28 1
   36    27    29 1
   37    39    40 1
   38    39    41 1
   39    39    42 1
   40    37    38 1
   41    37    39 1
@<TRIPOS>SUBSTRUCTURE
      1  ACE              1 ****               0 ****  **** 
      2  ALA              7 ****               0 ****  **** 
      3  ALA             17 ****               0 ****  **** 
      4  ALA             27 ****               0 ****  **** 
      5  NME             37 ****               0 ****  **** 
