@<TRIPOS>MOLECULE
default_name
   42    41     5     0     1 
SMALL
USER_CHARGES
@<TRIPOS>ATOM
  1 H1     25.849000   31.502000   23.477000 H     1 ACE     0.1123 ****
  2 CH3    26.533000   30.885000   22.895000 C     1 ACE    -0.3662 ****
  3 H2     27.165000   31.527000   22.284000 H     1 ACE     0.1123 ****
  4 H3     25.963000   30.207000   22.263000 H     1 ACE     0.1123 ****
  5 C      27.395000   30.089000   23.844000 C     1 ACE     0.5972 ****
  6 O      27.287000   30.240000   25.052000 O     1 ACE    -0.5679 ****
  7 N      28.275000   29.250000   23.297000 N     2 ALA    -0.4157 ****
  8 H      28.298000   29.174000   22.294000 H     2 ALA     0.2719 ****
  9 CA     29.177000   28.386000   24.073000 C     2 ALA     0.0337 ****
 10 HA     28.588000   27.886000   24.844000 H     2 ALA     0.0823 ****
 11 CB     29.725000   27.312000   23.122000 C     2 ALA    -0.1825 ****
 12 HB1    30.338000   27.774000   22.347000 H     2 ALA     0.0603 ****
 13 HB2    30.340000   26.607000   23.685000 H     2 ALA     0.0603 ****
 14 HB3    28.902000   26.765000   22.661000 H     2 ALA     0.0603 ****
 15 C      30.321000   29.128000   24.811000 C     2 ALA     0.5973 ****
 16 O      31.090000   28.488000   25.521000 O     2 ALA    -0.5679 ****
 17 N      30.420000   30.451000   24.630000 N     3 ALA    -0.4157 ****
 18 H      29.668000   30.869000   24.101000 H     3 ALA     0.2719 ****
 19 CA     31.377000   31.424000   25.175000 C     3 ALA     0.0337 ****
 20 HA     31.145000   31.625000   26.221000 H     3 ALA     0.0823 ****
 21 CB     32.826000   30.891000   25.060000 C     3 ALA    -0.1825 ****
 22 HB1    33.052000   30.619000   24.027000 H     3 ALA     0.0603 ****
 23 HB2    33.537000   31.639000   25.411000 H     3 ALA     0.0603 ****
 24 HB3    32.963000   30.018000   25.696000 H     3 ALA     0.0603 ****
 25 C      31.190000   32.732000   24.360000 C     3 ALA     0.5973 ****
 26 O      30.053000   33.101000   24.079000 O     3 ALA    -0.5679 ****
 27 N      32.271000   33.398000   23.927000 N     4 ALA    -0.4157 ****
 28 H      33.167000   33.009000   24.171000 H     4 ALA     0.2719 ****
 29 CA     32.291000   34.584000   23.050000 C     4 ALA     0.0337 ****
 30 HA     33.336000   34.886000   22.981000 H     4 ALA     0.0823 ****
 31 CB     31.878000   34.165000   21.630000 C     4 ALA    -0.1825 ****
 32 HB1    30.819000   33.903000   21.611000 H     4 ALA     0.0603 ****
 33 HB2    32.045000   34.993000   20.940000 H     4 ALA     0.0603 ****
 34 HB3    32.470000   33.310000   21.302000 H     4 ALA     0.0603 ****
 35 C      31.561000   35.860000   23.547000 C     4 ALA     0.5973 ****
 36 O      31.538000   36.855000   22.825000 O     4 ALA    -0.5679 ****
 37 N      31.017000   35.877000   24.771000 N     5 NME    -0.4157 ****
 38 H      31.034000   35.024000   25.304000 H     5 NME     0.2719 ****
 39 CH3    30.315000   37.025000   25.342000 C     5 NME    -0.1490 ****
 40 HH31   29.968000   36.793000   26.350000 H     5 NME     0.0976 ****
 41 HH32   30.983000   37.887000   25.378000 H     5 NME     0.0976 ****
 42 HH33   29.456000   37.276000   24.716000 H     5 NME     0.0976 ****
@<TRIPOS>BOND
    1     5     6 1
    2     5     7 1
    3     2     3 1
    4     2     4 1
    5     2     5 1
    6     1     2 1
    7    15    16 1
    8    15    17 1
    9    11    12 1
   10    11    13 1
   11    11    14 1
   12     9    10 1
   13     9    11 1
   14     9    15 1
   15     7     8 1
   16     7     9 1
   17    25    26 1
   18    25    27 1
   19    21    22 1
   20    21    23 1
   21    21    24 1
   22    19    20 1
   23    19    21 1
   24    19    25 1
   25    17    18 1
   26    17    19 1
   27    35    36 1
   28    35    37 1
   29    31    32 1
   30    31    33 1
   31    31    34 1
   32    29    30 1
   33    29    31 1
   34    29    35 1
   35    27    28 1
   36    27    29 1
   37    39    40 1
   38    39    41 1
   39    39    42 1
   40    37    38 1
   41    37    39 1
@<TRIPOS>SUBSTRUCTURE
      1  ACE              1 ****               0 ****  **** 
      2  ALA              7 ****               0 ****  **** 
      3  ALA             17 ****               0 ****  **** 
      4  ALA             27 ****               0 ****  **** 
      5  NME             37 ****               0 ****  **** 
