@<TRIPOS>MOLECULE
default_name
   42    41     5     0     1 
SMALL
USER_CHARGES
@<TRIPOS>ATOM
  1 H1     25.326000   28.028000   23.780000 H     1 ACE     0.1123 ****
  2 CH3    26.224000   27.864000   23.185000 C     1 ACE    -0.3662 ****
  3 H2     26.135000   28.396000   22.240000 H     1 ACE     0.1123 ****
  4 H3     26.351000   26.799000   23.003000 H     1 ACE     0.1123 ****
  5 C      27.418000   28.390000   23.946000 C     1 ACE     0.5972 ****
  6 O      27.272000   28.899000   25.050000 O     1 ACE    -0.5679 ****
  7 N      28.606000   28.268000   23.356000 N     2 ALA    -0.4157 ****
  8 H      28.648000   27.859000   22.438000 H     2 ALA     0.2719 ****
  9 CA     29.849000   28.776000   23.934000 C     2 ALA     0.0337 ****
 10 HA     29.881000   28.505000   24.991000 H     2 ALA     0.0823 ****
 11 CB     31.027000   28.079000   23.237000 C     2 ALA    -0.1825 ****
 12 HB1    31.020000   28.305000   22.169000 H     2 ALA     0.0603 ****
 13 HB2    31.965000   28.434000   23.666000 H     2 ALA     0.0603 ****
 14 HB3    30.958000   27.000000   23.380000 H     2 ALA     0.0603 ****
 15 C      29.928000   30.315000   23.835000 C     2 ALA     0.5973 ****
 16 O      30.313000   30.852000   22.800000 O     2 ALA    -0.5679 ****
 17 N      29.517000   31.007000   24.904000 N     3 ALA    -0.4157 ****
 18 H      29.109000   30.465000   25.651000 H     3 ALA     0.2719 ****
 19 CA     29.682000   32.441000   25.176000 C     3 ALA     0.0337 ****
 20 HA     28.838000   32.954000   24.714000 H     3 ALA     0.0823 ****
 21 CB     29.554000   32.646000   26.693000 C     3 ALA    -0.1825 ****
 22 HB1    30.362000   32.126000   27.210000 H     3 ALA     0.0603 ****
 23 HB2    29.616000   33.711000   26.924000 H     3 ALA     0.0603 ****
 24 HB3    28.594000   32.264000   27.043000 H     3 ALA     0.0603 ****
 25 C      30.962000   33.094000   24.595000 C     3 ALA     0.5973 ****
 26 O      31.990000   33.169000   25.268000 O     3 ALA    -0.5679 ****
 27 N      30.902000   33.583000   23.354000 N     4 ALA    -0.4157 ****
 28 H      30.073000   33.400000   22.812000 H     4 ALA     0.2719 ****
 29 CA     32.007000   34.267000   22.685000 C     4 ALA     0.0337 ****
 30 HA     32.930000   33.722000   22.891000 H     4 ALA     0.0823 ****
 31 CB     31.759000   34.205000   21.171000 C     4 ALA    -0.1825 ****
 32 HB1    30.831000   34.721000   20.920000 H     4 ALA     0.0603 ****
 33 HB2    32.584000   34.686000   20.646000 H     4 ALA     0.0603 ****
 34 HB3    31.691000   33.164000   20.850000 H     4 ALA     0.0603 ****
 35 C      32.179000   35.709000   23.207000 C     4 ALA     0.5973 ****
 36 O      31.549000   36.641000   22.708000 O     4 ALA    -0.5679 ****
 37 N      33.035000   35.891000   24.221000 N     5 NME    -0.4157 ****
 38 H      33.460000   35.068000   24.623000 H     5 NME     0.2719 ****
 39 CH3    33.319000   37.186000   24.836000 C     5 NME    -0.1490 ****
 40 HH31   32.396000   37.612000   25.235000 H     5 NME     0.0976 ****
 41 HH32   34.041000   37.068000   25.645000 H     5 NME     0.0976 ****
 42 HH33   33.723000   37.869000   24.086000 H     5 NME     0.0976 ****
@<TRIPOS>BOND
    1     5     6 1
    2     5     7 1
    3     2     3 1
    4     2     4 1
    5     2     5 1
    6     1     2 1
    7    15    16 1
    8    15    17 1
    9    11    12 1
   10    11    13 1
   11    11    14 1
   12     9    10 1
   13     9    11 1
   14     9    15 1
   15     7     8 1
   16     7     9 1
   17    25    26 1
   18    25    27 1
   19    21    22 1
   20    21    23 1
   21    21    24 1
   22    19    20 1
   23    19    21 1
   24    19    25 1
   25    17    18 1
   26    17    19 1
   27    35    36 1
   28    35    37 1
   29    31    32 1
   30    31    33 1
   31    31    34 1
   32    29    30 1
   33    29    31 1
   34    29    35 1
   35    27    28 1
   36    27    29 1
   37    39    40 1
   38    39    41 1
   39    39    42 1
   40    37    38 1
   41    37    39 1
@<TRIPOS>SUBSTRUCTURE
      1  ACE              1 ****               0 ****  **** 
      2  ALA              7 ****               0 ****  **** 
      3  ALA             17 ****               0 ****  **** 
      4  ALA             27 ****               0 ****  **** 
      5  NME             37 ****               0 ****  **** 
