@<TRIPOS>MOLECULE
default_name
   42    41     5     0     1 
SMALL
USER_CHARGES
@<TRIPOS>ATOM
  1 H1     26.189000   25.692000   23.489000 H     1 ACE     0.1123 ****
  2 CH3    26.332000   26.725000   23.176000 C     1 ACE    -0.3662 ****
  3 H2     25.508000   27.336000   23.540000 H     1 ACE     0.1123 ****
  4 H3     26.379000   26.774000   22.089000 H     1 ACE     0.1123 ****
  5 C      27.629000   27.238000   23.755000 C     1 ACE     0.5972 ****
  6 O      28.323000   26.509000   24.452000 O     1 ACE    -0.5679 ****
  7 N      27.952000   28.497000   23.471000 N     2 ALA    -0.4157 ****
  8 H      27.313000   29.051000   22.920000 H     2 ALA     0.2719 ****
  9 CA     29.155000   29.174000   23.955000 C     2 ALA     0.0337 ****
 10 HA     29.407000   28.780000   24.941000 H     2 ALA     0.0823 ****
 11 CB     30.317000   28.869000   22.997000 C     2 ALA    -0.1825 ****
 12 HB1    30.087000   29.252000   22.001000 H     2 ALA     0.0603 ****
 13 HB2    31.233000   29.336000   23.357000 H     2 ALA     0.0603 ****
 14 HB3    30.473000   27.791000   22.938000 H     2 ALA     0.0603 ****
 15 C      28.923000   30.689000   24.093000 C     2 ALA     0.5973 ****
 16 O      28.009000   31.238000   23.484000 O     2 ALA    -0.5679 ****
 17 N      29.769000   31.361000   24.881000 N     3 ALA    -0.4157 ****
 18 H      30.472000   30.833000   25.370000 H     3 ALA     0.2719 ****
 19 CA     29.700000   32.807000   25.117000 C     3 ALA     0.0337 ****
 20 HA     28.669000   33.139000   24.976000 H     3 ALA     0.0823 ****
 21 CB     30.082000   33.091000   26.577000 C     3 ALA    -0.1825 ****
 22 HB1    31.100000   32.760000   26.782000 H     3 ALA     0.0603 ****
 23 HB2    30.008000   34.163000   26.770000 H     3 ALA     0.0603 ****
 24 HB3    29.393000   32.570000   27.244000 H     3 ALA     0.0603 ****
 25 C      30.559000   33.603000   24.115000 C     3 ALA     0.5973 ****
 26 O      30.041000   34.450000   23.397000 O     3 ALA    -0.5679 ****
 27 N      31.875000   33.346000   24.098000 N     4 ALA    -0.4157 ****
 28 H      32.206000   32.641000   24.734000 H     4 ALA     0.2719 ****
 29 CA     32.878000   33.927000   23.187000 C     4 ALA     0.0337 ****
 30 HA     33.839000   33.517000   23.499000 H     4 ALA     0.0823 ****
 31 CB     32.635000   33.394000   21.766000 C     4 ALA    -0.1825 ****
 32 HB1    31.710000   33.810000   21.363000 H     4 ALA     0.0603 ****
 33 HB2    33.461000   33.688000   21.117000 H     4 ALA     0.0603 ****
 34 HB3    32.566000   32.306000   21.777000 H     4 ALA     0.0603 ****
 35 C      33.092000   35.463000   23.235000 C     4 ALA     0.5973 ****
 36 O      33.930000   35.972000   22.493000 O     4 ALA    -0.5679 ****
 37 N      32.412000   36.201000   24.124000 N     5 NME    -0.4157 ****
 38 H      31.718000   35.738000   24.685000 H     5 NME     0.2719 ****
 39 CH3    32.543000   37.650000   24.258000 C     5 NME    -0.1490 ****
 40 HH31   31.894000   38.017000   25.054000 H     5 NME     0.0976 ****
 41 HH32   33.580000   37.909000   24.485000 H     5 NME     0.0976 ****
 42 HH33   32.264000   38.130000   23.317000 H     5 NME     0.0976 ****
@<TRIPOS>BOND
    1     5     6 1
    2     5     7 1
    3     2     3 1
    4     2     4 1
    5     2     5 1
    6     1     2 1
    7    15    16 1
    8    15    17 1
    9    11    12 1
   10    11    13 1
   11    11    14 1
   12     9    10 1
   13     9    11 1
   14     9    15 1
   15     7     8 1
   16     7     9 1
   17    25    26 1
   18    25    27 1
   19    21    22 1
   20    21    23 1
   21    21    24 1
   22    19    20 1
   23    19    21 1
   24    19    25 1
   25    17    18 1
   26    17    19 1
   27    35    36 1
   28    35    37 1
   29    31    32 1
   30    31    33 1
   31    31    34 1
   32    29    30 1
   33    29    31 1
   34    29    35 1
   35    27    28 1
   36    27    29 1
   37    39    40 1
   38    39    41 1
   39    39    42 1
   40    37    38 1
   41    37    39 1
@<TRIPOS>SUBSTRUCTURE
      1  ACE              1 ****               0 ****  **** 
      2  ALA              7 ****               0 ****  **** 
      3  ALA             17 ****               0 ****  **** 
      4  ALA             27 ****               0 ****  **** 
      5  NME             37 ****               0 ****  **** 
