@<TRIPOS>MOLECULE
default_name
   42    41     5     0     1 
SMALL
USER_CHARGES
@<TRIPOS>ATOM
  1 H1     30.891000   29.505000   21.079000 H     1 ACE     0.1123 ****
  2 CH3    30.040000   29.047000   21.582000 C     1 ACE    -0.3662 ****
  3 H2     30.388000   28.247000   22.233000 H     1 ACE     0.1123 ****
  4 H3     29.351000   28.649000   20.840000 H     1 ACE     0.1123 ****
  5 C      29.336000   30.096000   22.409000 C     1 ACE     0.5972 ****
  6 O      29.755000   31.247000   22.432000 O     1 ACE    -0.5679 ****
  7 N      28.264000   29.702000   23.094000 N     2 ALA    -0.4157 ****
  8 H      27.994000   28.733000   23.049000 H     2 ALA     0.2719 ****
  9 CA     27.499000   30.582000   23.978000 C     2 ALA     0.0337 ****
 10 HA     27.258000   31.497000   23.434000 H     2 ALA     0.0823 ****
 11 CB     26.177000   29.884000   24.328000 C     2 ALA    -0.1825 ****
 12 HB1    26.372000   28.947000   24.853000 H     2 ALA     0.0603 ****
 13 HB2    25.584000   30.532000   24.976000 H     2 ALA     0.0603 ****
 14 HB3    25.610000   29.679000   23.419000 H     2 ALA     0.0603 ****
 15 C      28.320000   30.970000   25.227000 C     2 ALA     0.5973 ****
 16 O      28.361000   30.216000   26.195000 O     2 ALA    -0.5679 ****
 17 N      28.958000   32.147000   25.162000 N     3 ALA    -0.4157 ****
 18 H      28.845000   32.642000   24.290000 H     3 ALA     0.2719 ****
 19 CA     29.877000   32.790000   26.116000 C     3 ALA     0.0337 ****
 20 HA     29.297000   33.431000   26.783000 H     3 ALA     0.0823 ****
 21 CB     30.668000   31.785000   26.982000 C     3 ALA    -0.1825 ****
 22 HB1    31.114000   31.006000   26.362000 H     3 ALA     0.0603 ****
 23 HB2    31.450000   32.306000   27.535000 H     3 ALA     0.0603 ****
 24 HB3    30.004000   31.321000   27.712000 H     3 ALA     0.0603 ****
 25 C      30.836000   33.703000   25.323000 C     3 ALA     0.5973 ****
 26 O      30.499000   34.854000   25.068000 O     3 ALA    -0.5679 ****
 27 N      32.005000   33.203000   24.903000 N     4 ALA    -0.4157 ****
 28 H      32.206000   32.240000   25.116000 H     4 ALA     0.2719 ****
 29 CA     33.056000   33.985000   24.237000 C     4 ALA     0.0337 ****
 30 HA     33.156000   34.936000   24.763000 H     4 ALA     0.0823 ****
 31 CB     34.374000   33.215000   24.398000 C     4 ALA    -0.1825 ****
 32 HB1    34.321000   32.265000   23.864000 H     4 ALA     0.0603 ****
 33 HB2    35.195000   33.805000   23.987000 H     4 ALA     0.0603 ****
 34 HB3    34.574000   33.031000   25.455000 H     4 ALA     0.0603 ****
 35 C      32.786000   34.339000   22.753000 C     4 ALA     0.5973 ****
 36 O      33.607000   35.009000   22.131000 O     4 ALA    -0.5679 ****
 37 N      31.668000   33.881000   22.176000 N     5 NME    -0.4157 ****
 38 H      31.038000   33.344000   22.749000 H     5 NME     0.2719 ****
 39 CH3    31.292000   34.120000   20.785000 C     5 NME    -0.1490 ****
 40 HH31   30.444000   33.488000   20.516000 H     5 NME     0.0976 ****
 41 HH32   31.021000   35.168000   20.654000 H     5 NME     0.0976 ****
 42 HH33   32.135000   33.890000   20.130000 H     5 NME     0.0976 ****
@<TRIPOS>BOND
    1     5     6 1
    2     5     7 1
    3     2     3 1
    4     2     4 1
    5     2     5 1
    6     1     2 1
    7    15    16 1
    8    15    17 1
    9    11    12 1
   10    11    13 1
   11    11    14 1
   12     9    10 1
   13     9    11 1
   14     9    15 1
   15     7     8 1
   16     7     9 1
   17    25    26 1
   18    25    27 1
   19    21    22 1
   20    21    23 1
   21    21    24 1
   22    19    20 1
   23    19    21 1
   24    19    25 1
   25    17    18 1
   26    17    19 1
   27    35    36 1
   28    35    37 1
   29    31    32 1
   30    31    33 1
   31    31    34 1
   32    29    30 1
   33    29    31 1
   34    29    35 1
   35    27    28 1
   36    27    29 1
   37    39    40 1
   38    39    41 1
   39    39    42 1
   40    37    38 1
   41    37    39 1
@<TRIPOS>SUBSTRUCTURE
      1  ACE              1 ****               0 ****  **** 
      2  ALA              7 ****               0 ****  **** 
      3  ALA             17 ****               0 ****  **** 
      4  ALA             27 ****               0 ****  **** 
      5  NME             37 ****               0 ****  **** 
