@<TRIPOS>MOLECULE
default_name
   42    41     5     0     1 
SMALL
USER_CHARGES
@<TRIPOS>ATOM
  1 H1     27.049000   31.177000   21.625000 H     1 ACE     0.1123 ****
  2 CH3    27.809000   30.399000   21.575000 C     1 ACE    -0.3662 ****
  3 H2     28.759000   30.836000   21.269000 H     1 ACE     0.1123 ****
  4 H3     27.505000   29.631000   20.867000 H     1 ACE     0.1123 ****
  5 C      27.975000   29.786000   22.945000 C     1 ACE     0.5972 ****
  6 O      27.329000   30.215000   23.894000 O     1 ACE    -0.5679 ****
  7 N      28.847000   28.784000   23.048000 N     2 ALA    -0.4157 ****
  8 H      29.372000   28.530000   22.228000 H     2 ALA     0.2719 ****
  9 CA     29.290000   28.225000   24.324000 C     2 ALA     0.0337 ****
 10 HA     28.426000   28.099000   24.979000 H     2 ALA     0.0823 ****
 11 CB     29.898000   26.839000   24.064000 C     2 ALA    -0.1825 ****
 12 HB1    30.754000   26.925000   23.392000 H     2 ALA     0.0603 ****
 13 HB2    30.234000   26.406000   25.007000 H     2 ALA     0.0603 ****
 14 HB3    29.151000   26.183000   23.618000 H     2 ALA     0.0603 ****
 15 C      30.270000   29.205000   24.999000 C     2 ALA     0.5973 ****
 16 O      31.485000   29.098000   24.836000 O     2 ALA    -0.5679 ****
 17 N      29.732000   30.161000   25.765000 N     3 ALA    -0.4157 ****
 18 H      28.744000   30.054000   25.929000 H     3 ALA     0.2719 ****
 19 CA     30.181000   31.562000   25.799000 C     3 ALA     0.0337 ****
 20 HA     29.325000   32.160000   26.111000 H     3 ALA     0.0823 ****
 21 CB     31.249000   31.690000   26.897000 C     3 ALA    -0.1825 ****
 22 HB1    32.139000   31.126000   26.613000 H     3 ALA     0.0603 ****
 23 HB2    31.522000   32.736000   27.040000 H     3 ALA     0.0603 ****
 24 HB3    30.864000   31.296000   27.839000 H     3 ALA     0.0603 ****
 25 C      30.673000   32.176000   24.457000 C     3 ALA     0.5973 ****
 26 O      30.836000   31.521000   23.428000 O     3 ALA    -0.5679 ****
 27 N      30.779000   33.507000   24.438000 N     4 ALA    -0.4157 ****
 28 H      30.637000   34.019000   25.297000 H     4 ALA     0.2719 ****
 29 CA     31.180000   34.301000   23.277000 C     4 ALA     0.0337 ****
 30 HA     31.900000   33.729000   22.689000 H     4 ALA     0.0823 ****
 31 CB     29.943000   34.573000   22.408000 C     4 ALA    -0.1825 ****
 32 HB1    29.207000   35.144000   22.977000 H     4 ALA     0.0603 ****
 33 HB2    30.227000   35.140000   21.521000 H     4 ALA     0.0603 ****
 34 HB3    29.497000   33.629000   22.093000 H     4 ALA     0.0603 ****
 35 C      31.861000   35.610000   23.719000 C     4 ALA     0.5973 ****
 36 O      31.675000   36.057000   24.851000 O     4 ALA    -0.5679 ****
 37 N      32.637000   36.229000   22.820000 N     5 NME    -0.4157 ****
 38 H      32.738000   35.803000   21.912000 H     5 NME     0.2719 ****
 39 CH3    33.348000   37.480000   23.078000 C     5 NME    -0.1490 ****
 40 HH31   34.038000   37.345000   23.913000 H     5 NME     0.0976 ****
 41 HH32   33.909000   37.786000   22.194000 H     5 NME     0.0976 ****
 42 HH33   32.634000   38.262000   23.341000 H     5 NME     0.0976 ****
@<TRIPOS>BOND
    1     5     6 1
    2     5     7 1
    3     2     3 1
    4     2     4 1
    5     2     5 1
    6     1     2 1
    7    15    16 1
    8    15    17 1
    9    11    12 1
   10    11    13 1
   11    11    14 1
   12     9    10 1
   13     9    11 1
   14     9    15 1
   15     7     8 1
   16     7     9 1
   17    25    26 1
   18    25    27 1
   19    21    22 1
   20    21    23 1
   21    21    24 1
   22    19    20 1
   23    19    21 1
   24    19    25 1
   25    17    18 1
   26    17    19 1
   27    35    36 1
   28    35    37 1
   29    31    32 1
   30    31    33 1
   31    31    34 1
   32    29    30 1
   33    29    31 1
   34    29    35 1
   35    27    28 1
   36    27    29 1
   37    39    40 1
   38    39    41 1
   39    39    42 1
   40    37    38 1
   41    37    39 1
@<TRIPOS>SUBSTRUCTURE
      1  ACE              1 ****               0 ****  **** 
      2  ALA              7 ****               0 ****  **** 
      3  ALA             17 ****               0 ****  **** 
      4  ALA             27 ****               0 ****  **** 
      5  NME             37 ****               0 ****  **** 
