@<TRIPOS>MOLECULE
default_name
   42    41     5     0     1 
SMALL
USER_CHARGES
@<TRIPOS>ATOM
  1 H1     26.133000   27.460000   26.206000 H     1 ACE     0.1123 ****
  2 CH3    26.437000   27.241000   25.183000 C     1 ACE    -0.3662 ****
  3 H2     25.671000   27.589000   24.493000 H     1 ACE     0.1123 ****
  4 H3     26.584000   26.169000   25.068000 H     1 ACE     0.1123 ****
  5 C      27.734000   27.959000   24.894000 C     1 ACE     0.5972 ****
  6 O      28.262000   28.650000   25.756000 O     1 ACE    -0.5679 ****
  7 N      28.249000   27.795000   23.677000 N     2 ALA    -0.4157 ****
  8 H      27.746000   27.231000   23.014000 H     2 ALA     0.2719 ****
  9 CA     29.460000   28.471000   23.210000 C     2 ALA     0.0337 ****
 10 HA     30.211000   28.434000   24.001000 H     2 ALA     0.0823 ****
 11 CB     30.012000   27.697000   22.005000 C     2 ALA    -0.1825 ****
 12 HB1    29.281000   27.690000   21.194000 H     2 ALA     0.0603 ****
 13 HB2    30.924000   28.180000   21.651000 H     2 ALA     0.0603 ****
 14 HB3    30.244000   26.671000   22.294000 H     2 ALA     0.0603 ****
 15 C      29.185000   29.956000   22.890000 C     2 ALA     0.5973 ****
 16 O      28.776000   30.295000   21.781000 O     2 ALA    -0.5679 ****
 17 N      29.382000   30.832000   23.879000 N     3 ALA    -0.4157 ****
 18 H      29.645000   30.473000   24.783000 H     3 ALA     0.2719 ****
 19 CA     29.352000   32.284000   23.700000 C     3 ALA     0.0337 ****
 20 HA     28.660000   32.537000   22.895000 H     3 ALA     0.0823 ****
 21 CB     28.797000   32.879000   25.007000 C     3 ALA    -0.1825 ****
 22 HB1    29.497000   32.706000   25.827000 H     3 ALA     0.0603 ****
 23 HB2    28.627000   33.950000   24.895000 H     3 ALA     0.0603 ****
 24 HB3    27.844000   32.407000   25.249000 H     3 ALA     0.0603 ****
 25 C      30.746000   32.835000   23.302000 C     3 ALA     0.5973 ****
 26 O      31.561000   32.129000   22.711000 O     3 ALA    -0.5679 ****
 27 N      31.054000   34.081000   23.676000 N     4 ALA    -0.4157 ****
 28 H      30.379000   34.605000   24.214000 H     4 ALA     0.2719 ****
 29 CA     32.335000   34.742000   23.429000 C     4 ALA     0.0337 ****
 30 HA     33.131000   33.996000   23.463000 H     4 ALA     0.0823 ****
 31 CB     32.308000   35.366000   22.026000 C     4 ALA    -0.1825 ****
 32 HB1    31.517000   36.115000   21.967000 H     4 ALA     0.0603 ****
 33 HB2    33.266000   35.840000   21.810000 H     4 ALA     0.0603 ****
 34 HB3    32.125000   34.591000   21.280000 H     4 ALA     0.0603 ****
 35 C      32.626000   35.796000   24.514000 C     4 ALA     0.5973 ****
 36 O      31.713000   36.242000   25.209000 O     4 ALA    -0.5679 ****
 37 N      33.895000   36.200000   24.648000 N     5 NME    -0.4157 ****
 38 H      34.586000   35.793000   24.037000 H     5 NME     0.2719 ****
 39 CH3    34.337000   37.196000   25.622000 C     5 NME    -0.1490 ****
 40 HH31   34.103000   36.853000   26.632000 H     5 NME     0.0976 ****
 41 HH32   35.413000   37.358000   25.538000 H     5 NME     0.0976 ****
 42 HH33   33.816000   38.140000   25.447000 H     5 NME     0.0976 ****
@<TRIPOS>BOND
    1     5     6 1
    2     5     7 1
    3     2     3 1
    4     2     4 1
    5     2     5 1
    6     1     2 1
    7    15    16 1
    8    15    17 1
    9    11    12 1
   10    11    13 1
   11    11    14 1
   12     9    10 1
   13     9    11 1
   14     9    15 1
   15     7     8 1
   16     7     9 1
   17    25    26 1
   18    25    27 1
   19    21    22 1
   20    21    23 1
   21    21    24 1
   22    19    20 1
   23    19    21 1
   24    19    25 1
   25    17    18 1
   26    17    19 1
   27    35    36 1
   28    35    37 1
   29    31    32 1
   30    31    33 1
   31    31    34 1
   32    29    30 1
   33    29    31 1
   34    29    35 1
   35    27    28 1
   36    27    29 1
   37    39    40 1
   38    39    41 1
   39    39    42 1
   40    37    38 1
   41    37    39 1
@<TRIPOS>SUBSTRUCTURE
      1  ACE              1 ****               0 ****  **** 
      2  ALA              7 ****               0 ****  **** 
      3  ALA             17 ****               0 ****  **** 
      4  ALA             27 ****               0 ****  **** 
      5  NME             37 ****               0 ****  **** 
