@<TRIPOS>MOLECULE
default_name
   42    41     5     0     1 
SMALL
USER_CHARGES
@<TRIPOS>ATOM
  1 H1     25.204000   27.400000   22.269000 H     1 ACE     0.1123 ****
  2 CH3    25.450000   28.384000   22.666000 C     1 ACE    -0.3662 ****
  3 H2     24.954000   28.526000   23.624000 H     1 ACE     0.1123 ****
  4 H3     25.130000   29.151000   21.963000 H     1 ACE     0.1123 ****
  5 C      26.945000   28.475000   22.858000 C     1 ACE     0.5972 ****
  6 O      27.661000   27.523000   22.575000 O     1 ACE    -0.5679 ****
  7 N      27.413000   29.620000   23.348000 N     2 ALA    -0.4157 ****
  8 H      26.758000   30.347000   23.594000 H     2 ALA     0.2719 ****
  9 CA     28.824000   29.894000   23.621000 C     2 ALA     0.0337 ****
 10 HA     29.313000   28.964000   23.916000 H     2 ALA     0.0823 ****
 11 CB     29.490000   30.408000   22.335000 C     2 ALA    -0.1825 ****
 12 HB1    29.019000   31.340000   22.017000 H     2 ALA     0.0603 ****
 13 HB2    30.551000   30.589000   22.506000 H     2 ALA     0.0603 ****
 14 HB3    29.386000   29.665000   21.542000 H     2 ALA     0.0603 ****
 15 C      28.980000   30.901000   24.774000 C     2 ALA     0.5973 ****
 16 O      28.050000   31.640000   25.090000 O     2 ALA    -0.5679 ****
 17 N      30.171000   30.952000   25.376000 N     3 ALA    -0.4157 ****
 18 H      30.880000   30.302000   25.078000 H     3 ALA     0.2719 ****
 19 CA     30.493000   31.856000   26.489000 C     3 ALA     0.0337 ****
 20 HA     29.585000   32.069000   27.056000 H     3 ALA     0.0823 ****
 21 CB     31.480000   31.135000   27.416000 C     3 ALA    -0.1825 ****
 22 HB1    32.407000   30.915000   26.886000 H     3 ALA     0.0603 ****
 23 HB2    31.704000   31.775000   28.272000 H     3 ALA     0.0603 ****
 24 HB3    31.038000   30.207000   27.779000 H     3 ALA     0.0603 ****
 25 C      31.059000   33.210000   26.012000 C     3 ALA     0.5973 ****
 26 O      30.884000   34.226000   26.678000 O     3 ALA    -0.5679 ****
 27 N      31.752000   33.220000   24.871000 N     4 ALA    -0.4157 ****
 28 H      31.830000   32.359000   24.351000 H     4 ALA     0.2719 ****
 29 CA     32.287000   34.408000   24.211000 C     4 ALA     0.0337 ****
 30 HA     31.627000   35.254000   24.412000 H     4 ALA     0.0823 ****
 31 CB     33.675000   34.719000   24.791000 C     4 ALA    -0.1825 ****
 32 HB1    34.352000   33.884000   24.604000 H     4 ALA     0.0603 ****
 33 HB2    34.079000   35.619000   24.329000 H     4 ALA     0.0603 ****
 34 HB3    33.597000   34.883000   25.867000 H     4 ALA     0.0603 ****
 35 C      32.337000   34.190000   22.687000 C     4 ALA     0.5973 ****
 36 O      32.289000   33.049000   22.223000 O     4 ALA    -0.5679 ****
 37 N      32.442000   35.279000   21.915000 N     5 NME    -0.4157 ****
 38 H      32.478000   36.178000   22.370000 H     5 NME     0.2719 ****
 39 CH3    32.502000   35.242000   20.455000 C     5 NME    -0.1490 ****
 40 HH31   33.364000   34.652000   20.136000 H     5 NME     0.0976 ****
 41 HH32   31.597000   34.775000   20.060000 H     5 NME     0.0976 ****
 42 HH33   32.590000   36.253000   20.054000 H     5 NME     0.0976 ****
@<TRIPOS>BOND
    1     5     6 1
    2     5     7 1
    3     2     3 1
    4     2     4 1
    5     2     5 1
    6     1     2 1
    7    15    16 1
    8    15    17 1
    9    11    12 1
   10    11    13 1
   11    11    14 1
   12     9    10 1
   13     9    11 1
   14     9    15 1
   15     7     8 1
   16     7     9 1
   17    25    26 1
   18    25    27 1
   19    21    22 1
   20    21    23 1
   21    21    24 1
   22    19    20 1
   23    19    21 1
   24    19    25 1
   25    17    18 1
   26    17    19 1
   27    35    36 1
   28    35    37 1
   29    31    32 1
   30    31    33 1
   31    31    34 1
   32    29    30 1
   33    29    31 1
   34    29    35 1
   35    27    28 1
   36    27    29 1
   37    39    40 1
   38    39    41 1
   39    39    42 1
   40    37    38 1
   41    37    39 1
@<TRIPOS>SUBSTRUCTURE
      1  ACE              1 ****               0 ****  **** 
      2  ALA              7 ****               0 ****  **** 
      3  ALA             17 ****               0 ****  **** 
      4  ALA             27 ****               0 ****  **** 
      5  NME             37 ****               0 ****  **** 
