@<TRIPOS>MOLECULE
default_name
   42    41     5     0     1 
SMALL
USER_CHARGES
@<TRIPOS>ATOM
  1 H1     25.949000   25.847000   22.357000 H     1 ACE     0.1123 ****
  2 CH3    26.437000   26.798000   22.151000 C     1 ACE    -0.3662 ****
  3 H2     25.687000   27.578000   22.039000 H     1 ACE     0.1123 ****
  4 H3     27.027000   26.716000   21.240000 H     1 ACE     0.1123 ****
  5 C      27.348000   27.141000   23.306000 C     1 ACE     0.5972 ****
  6 O      27.435000   26.386000   24.265000 O     1 ACE    -0.5679 ****
  7 N      28.019000   28.287000   23.214000 N     2 ALA    -0.4157 ****
  8 H      27.867000   28.875000   22.409000 H     2 ALA     0.2719 ****
  9 CA     28.934000   28.801000   24.233000 C     2 ALA     0.0337 ****
 10 HA     28.581000   28.487000   25.217000 H     2 ALA     0.0823 ****
 11 CB     30.328000   28.198000   24.000000 C     2 ALA    -0.1825 ****
 12 HB1    30.702000   28.495000   23.018000 H     2 ALA     0.0603 ****
 13 HB2    31.020000   28.553000   24.764000 H     2 ALA     0.0603 ****
 14 HB3    30.274000   27.110000   24.051000 H     2 ALA     0.0603 ****
 15 C      28.978000   30.339000   24.212000 C     2 ALA     0.5973 ****
 16 O      28.607000   30.966000   23.219000 O     2 ALA    -0.5679 ****
 17 N      29.445000   30.949000   25.305000 N     3 ALA    -0.4157 ****
 18 H      29.781000   30.381000   26.065000 H     3 ALA     0.2719 ****
 19 CA     29.708000   32.386000   25.364000 C     3 ALA     0.0337 ****
 20 HA     28.895000   32.912000   24.861000 H     3 ALA     0.0823 ****
 21 CB     29.724000   32.824000   26.834000 C     3 ALA    -0.1825 ****
 22 HB1    30.535000   32.323000   27.364000 H     3 ALA     0.0603 ****
 23 HB2    29.874000   33.903000   26.896000 H     3 ALA     0.0603 ****
 24 HB3    28.773000   32.574000   27.306000 H     3 ALA     0.0603 ****
 25 C      31.025000   32.750000   24.648000 C     3 ALA     0.5973 ****
 26 O      31.960000   31.951000   24.604000 O     3 ALA    -0.5679 ****
 27 N      31.113000   33.977000   24.131000 N     4 ALA    -0.4157 ****
 28 H      30.333000   34.609000   24.235000 H     4 ALA     0.2719 ****
 29 CA     32.285000   34.509000   23.436000 C     4 ALA     0.0337 ****
 30 HA     33.185000   34.075000   23.874000 H     4 ALA     0.0823 ****
 31 CB     32.212000   34.095000   21.959000 C     4 ALA    -0.1825 ****
 32 HB1    31.318000   34.518000   21.497000 H     4 ALA     0.0603 ****
 33 HB2    33.093000   34.453000   21.425000 H     4 ALA     0.0603 ****
 34 HB3    32.173000   33.008000   21.881000 H     4 ALA     0.0603 ****
 35 C      32.372000   36.039000   23.594000 C     4 ALA     0.5973 ****
 36 O      31.385000   36.687000   23.941000 O     4 ALA    -0.5679 ****
 37 N      33.553000   36.614000   23.331000 N     5 NME    -0.4157 ****
 38 H      34.314000   36.018000   23.046000 H     5 NME     0.2719 ****
 39 CH3    33.802000   38.051000   23.426000 C     5 NME    -0.1490 ****
 40 HH31   33.608000   38.392000   24.446000 H     5 NME     0.0976 ****
 41 HH32   34.836000   38.276000   23.162000 H     5 NME     0.0976 ****
 42 HH33   33.133000   38.586000   22.749000 H     5 NME     0.0976 ****
@<TRIPOS>BOND
    1     5     6 1
    2     5     7 1
    3     2     3 1
    4     2     4 1
    5     2     5 1
    6     1     2 1
    7    15    16 1
    8    15    17 1
    9    11    12 1
   10    11    13 1
   11    11    14 1
   12     9    10 1
   13     9    11 1
   14     9    15 1
   15     7     8 1
   16     7     9 1
   17    25    26 1
   18    25    27 1
   19    21    22 1
   20    21    23 1
   21    21    24 1
   22    19    20 1
   23    19    21 1
   24    19    25 1
   25    17    18 1
   26    17    19 1
   27    35    36 1
   28    35    37 1
   29    31    32 1
   30    31    33 1
   31    31    34 1
   32    29    30 1
   33    29    31 1
   34    29    35 1
   35    27    28 1
   36    27    29 1
   37    39    40 1
   38    39    41 1
   39    39    42 1
   40    37    38 1
   41    37    39 1
@<TRIPOS>SUBSTRUCTURE
      1  ACE              1 ****               0 ****  **** 
      2  ALA              7 ****               0 ****  **** 
      3  ALA             17 ****               0 ****  **** 
      4  ALA             27 ****               0 ****  **** 
      5  NME             37 ****               0 ****  **** 
