@<TRIPOS>MOLECULE
default_name
   42    41     5     0     1 
SMALL
USER_CHARGES
@<TRIPOS>ATOM
  1 H1     25.442000   28.147000   24.472000 H     1 ACE     0.1123 ****
  2 CH3    26.048000   28.483000   23.631000 C     1 ACE    -0.3662 ****
  3 H2     25.740000   29.485000   23.338000 H     1 ACE     0.1123 ****
  4 H3     25.923000   27.795000   22.797000 H     1 ACE     0.1123 ****
  5 C      27.499000   28.501000   24.052000 C     1 ACE     0.5972 ****
  6 O      27.815000   28.168000   25.184000 O     1 ACE    -0.5679 ****
  7 N      28.380000   28.914000   23.143000 N     2 ALA    -0.4157 ****
  8 H      28.032000   29.164000   22.232000 H     2 ALA     0.2719 ****
  9 CA     29.838000   28.916000   23.332000 C     2 ALA     0.0337 ****
 10 HA     30.107000   27.995000   23.853000 H     2 ALA     0.0823 ****
 11 CB     30.485000   28.871000   21.939000 C     2 ALA    -0.1825 ****
 12 HB1    30.268000   29.791000   21.394000 H     2 ALA     0.0603 ****
 13 HB2    31.566000   28.766000   22.040000 H     2 ALA     0.0603 ****
 14 HB3    30.106000   28.016000   21.379000 H     2 ALA     0.0603 ****
 15 C      30.402000   30.075000   24.196000 C     2 ALA     0.5973 ****
 16 O      31.616000   30.247000   24.239000 O     2 ALA    -0.5679 ****
 17 N      29.537000   30.839000   24.879000 N     3 ALA    -0.4157 ****
 18 H      28.589000   30.502000   24.873000 H     3 ALA     0.2719 ****
 19 CA     29.712000   32.139000   25.560000 C     3 ALA     0.0337 ****
 20 HA     28.828000   32.731000   25.322000 H     3 ALA     0.0823 ****
 21 CB     29.656000   31.846000   27.069000 C     3 ALA    -0.1825 ****
 22 HB1    30.548000   31.294000   27.369000 H     3 ALA     0.0603 ****
 23 HB2    29.612000   32.781000   27.630000 H     3 ALA     0.0603 ****
 24 HB3    28.771000   31.256000   27.307000 H     3 ALA     0.0603 ****
 25 C      30.913000   33.063000   25.198000 C     3 ALA     0.5973 ****
 26 O      31.375000   33.837000   26.036000 O     3 ALA    -0.5679 ****
 27 N      31.413000   33.035000   23.959000 N     4 ALA    -0.4157 ****
 28 H      30.989000   32.431000   23.278000 H     4 ALA     0.2719 ****
 29 CA     32.468000   33.931000   23.494000 C     4 ALA     0.0337 ****
 30 HA     33.232000   33.997000   24.272000 H     4 ALA     0.0823 ****
 31 CB     33.114000   33.322000   22.244000 C     4 ALA    -0.1825 ****
 32 HB1    32.377000   33.246000   21.443000 H     4 ALA     0.0603 ****
 33 HB2    33.938000   33.953000   21.911000 H     4 ALA     0.0603 ****
 34 HB3    33.500000   32.327000   22.476000 H     4 ALA     0.0603 ****
 35 C      31.922000   35.347000   23.228000 C     4 ALA     0.5973 ****
 36 O      30.875000   35.504000   22.600000 O     4 ALA    -0.5679 ****
 37 N      32.655000   36.376000   23.671000 N     5 NME    -0.4157 ****
 38 H      33.485000   36.166000   24.203000 H     5 NME     0.2719 ****
 39 CH3    32.287000   37.779000   23.493000 C     5 NME    -0.1490 ****
 40 HH31   31.340000   37.976000   24.000000 H     5 NME     0.0976 ****
 41 HH32   33.059000   38.429000   23.908000 H     5 NME     0.0976 ****
 42 HH33   32.164000   37.996000   22.430000 H     5 NME     0.0976 ****
@<TRIPOS>BOND
    1     5     6 1
    2     5     7 1
    3     2     3 1
    4     2     4 1
    5     2     5 1
    6     1     2 1
    7    15    16 1
    8    15    17 1
    9    11    12 1
   10    11    13 1
   11    11    14 1
   12     9    10 1
   13     9    11 1
   14     9    15 1
   15     7     8 1
   16     7     9 1
   17    25    26 1
   18    25    27 1
   19    21    22 1
   20    21    23 1
   21    21    24 1
   22    19    20 1
   23    19    21 1
   24    19    25 1
   25    17    18 1
   26    17    19 1
   27    35    36 1
   28    35    37 1
   29    31    32 1
   30    31    33 1
   31    31    34 1
   32    29    30 1
   33    29    31 1
   34    29    35 1
   35    27    28 1
   36    27    29 1
   37    39    40 1
   38    39    41 1
   39    39    42 1
   40    37    38 1
   41    37    39 1
@<TRIPOS>SUBSTRUCTURE
      1  ACE              1 ****               0 ****  **** 
      2  ALA              7 ****               0 ****  **** 
      3  ALA             17 ****               0 ****  **** 
      4  ALA             27 ****               0 ****  **** 
      5  NME             37 ****               0 ****  **** 
