@<TRIPOS>MOLECULE
default_name
   42    41     5     0     1 
SMALL
USER_CHARGES
@<TRIPOS>ATOM
  1 H1     25.780000   25.451000   23.358000 H     1 ACE     0.1123 ****
  2 CH3    26.046000   26.451000   23.017000 C     1 ACE    -0.3662 ****
  3 H2     25.243000   27.145000   23.256000 H     1 ACE     0.1123 ****
  4 H3     26.219000   26.437000   21.943000 H     1 ACE     0.1123 ****
  5 C      27.310000   26.887000   23.721000 C     1 ACE     0.5972 ****
  6 O      27.854000   26.141000   24.525000 O     1 ACE    -0.5679 ****
  7 N      27.771000   28.098000   23.419000 N     2 ALA    -0.4157 ****
  8 H      27.246000   28.670000   22.774000 H     2 ALA     0.2719 ****
  9 CA     28.963000   28.708000   24.009000 C     2 ALA     0.0337 ****
 10 HA     29.061000   28.366000   25.041000 H     2 ALA     0.0823 ****
 11 CB     30.199000   28.248000   23.223000 C     2 ALA    -0.1825 ****
 12 HB1    30.124000   28.575000   22.185000 H     2 ALA     0.0603 ****
 13 HB2    31.102000   28.671000   23.666000 H     2 ALA     0.0603 ****
 14 HB3    30.272000   27.160000   23.253000 H     2 ALA     0.0603 ****
 15 C      28.847000   30.244000   24.028000 C     2 ALA     0.5973 ****
 16 O      28.049000   30.820000   23.288000 O     2 ALA    -0.5679 ****
 17 N      29.658000   30.901000   24.860000 N     3 ALA    -0.4157 ****
 18 H      30.331000   30.368000   25.389000 H     3 ALA     0.2719 ****
 19 CA     29.765000   32.358000   24.951000 C     3 ALA     0.0337 ****
 20 HA     29.076000   32.815000   24.239000 H     3 ALA     0.0823 ****
 21 CB     29.344000   32.802000   26.357000 C     3 ALA    -0.1825 ****
 22 HB1    30.017000   32.374000   27.101000 H     3 ALA     0.0603 ****
 23 HB2    29.382000   33.890000   26.427000 H     3 ALA     0.0603 ****
 24 HB3    28.324000   32.471000   26.559000 H     3 ALA     0.0603 ****
 25 C      31.184000   32.833000   24.589000 C     3 ALA     0.5973 ****
 26 O      32.161000   32.134000   24.854000 O     3 ALA    -0.5679 ****
 27 N      31.296000   34.026000   24.002000 N     4 ALA    -0.4157 ****
 28 H      30.463000   34.576000   23.847000 H     4 ALA     0.2719 ****
 29 CA     32.561000   34.649000   23.610000 C     4 ALA     0.0337 ****
 30 HA     33.337000   34.354000   24.317000 H     4 ALA     0.0823 ****
 31 CB     32.951000   34.139000   22.214000 C     4 ALA    -0.1825 ****
 32 HB1    32.188000   34.421000   21.488000 H     4 ALA     0.0603 ****
 33 HB2    33.907000   34.568000   21.914000 H     4 ALA     0.0603 ****
 34 HB3    33.046000   33.052000   22.231000 H     4 ALA     0.0603 ****
 35 C      32.451000   36.186000   23.642000 C     4 ALA     0.5973 ****
 36 O      31.347000   36.730000   23.632000 O     4 ALA    -0.5679 ****
 37 N      33.595000   36.880000   23.670000 N     5 NME    -0.4157 ****
 38 H      34.461000   36.363000   23.670000 H     5 NME     0.2719 ****
 39 CH3    33.665000   38.340000   23.697000 C     5 NME    -0.1490 ****
 40 HH31   33.151000   38.717000   24.583000 H     5 NME     0.0976 ****
 41 HH32   34.704000   38.670000   23.715000 H     5 NME     0.0976 ****
 42 HH33   33.172000   38.748000   22.811000 H     5 NME     0.0976 ****
@<TRIPOS>BOND
    1     5     6 1
    2     5     7 1
    3     2     3 1
    4     2     4 1
    5     2     5 1
    6     1     2 1
    7    15    16 1
    8    15    17 1
    9    11    12 1
   10    11    13 1
   11    11    14 1
   12     9    10 1
   13     9    11 1
   14     9    15 1
   15     7     8 1
   16     7     9 1
   17    25    26 1
   18    25    27 1
   19    21    22 1
   20    21    23 1
   21    21    24 1
   22    19    20 1
   23    19    21 1
   24    19    25 1
   25    17    18 1
   26    17    19 1
   27    35    36 1
   28    35    37 1
   29    31    32 1
   30    31    33 1
   31    31    34 1
   32    29    30 1
   33    29    31 1
   34    29    35 1
   35    27    28 1
   36    27    29 1
   37    39    40 1
   38    39    41 1
   39    39    42 1
   40    37    38 1
   41    37    39 1
@<TRIPOS>SUBSTRUCTURE
      1  ACE              1 ****               0 ****  **** 
      2  ALA              7 ****               0 ****  **** 
      3  ALA             17 ****               0 ****  **** 
      4  ALA             27 ****               0 ****  **** 
      5  NME             37 ****               0 ****  **** 
