@<TRIPOS>MOLECULE
default_name
   42    41     5     0     1 
SMALL
USER_CHARGES
@<TRIPOS>ATOM
  1 H1     25.985000   27.242000   21.743000 H     1 ACE     0.1123 ****
  2 CH3    26.245000   28.247000   22.070000 C     1 ACE    -0.3662 ****
  3 H2     25.546000   28.575000   22.837000 H     1 ACE     0.1123 ****
  4 H3     26.212000   28.928000   21.221000 H     1 ACE     0.1123 ****
  5 C      27.643000   28.230000   22.642000 C     1 ACE     0.5972 ****
  6 O      28.280000   27.185000   22.677000 O     1 ACE    -0.5679 ****
  7 N      28.115000   29.388000   23.095000 N     2 ALA    -0.4157 ****
  8 H      27.519000   30.202000   23.062000 H     2 ALA     0.2719 ****
  9 CA     29.439000   29.571000   23.689000 C     2 ALA     0.0337 ****
 10 HA     29.725000   28.654000   24.207000 H     2 ALA     0.0823 ****
 11 CB     30.453000   29.838000   22.566000 C     2 ALA    -0.1825 ****
 12 HB1    30.191000   30.757000   22.038000 H     2 ALA     0.0603 ****
 13 HB2    31.455000   29.939000   22.981000 H     2 ALA     0.0603 ****
 14 HB3    30.449000   29.006000   21.860000 H     2 ALA     0.0603 ****
 15 C      29.432000   30.717000   24.716000 C     2 ALA     0.5973 ****
 16 O      28.551000   31.574000   24.697000 O     2 ALA    -0.5679 ****
 17 N      30.450000   30.772000   25.580000 N     3 ALA    -0.4157 ****
 18 H      31.153000   30.051000   25.539000 H     3 ALA     0.2719 ****
 19 CA     30.605000   31.815000   26.602000 C     3 ALA     0.0337 ****
 20 HA     29.618000   32.198000   26.865000 H     3 ALA     0.0823 ****
 21 CB     31.199000   31.163000   27.860000 C     3 ALA    -0.1825 ****
 22 HB1    32.207000   30.799000   27.653000 H     3 ALA     0.0603 ****
 23 HB2    31.249000   31.898000   28.665000 H     3 ALA     0.0603 ****
 24 HB3    30.570000   30.334000   28.184000 H     3 ALA     0.0603 ****
 25 C      31.427000   33.026000   26.097000 C     3 ALA     0.5973 ****
 26 O      32.154000   33.661000   26.858000 O     3 ALA    -0.5679 ****
 27 N      31.334000   33.331000   24.799000 N     4 ALA    -0.4157 ****
 28 H      30.667000   32.819000   24.237000 H     4 ALA     0.2719 ****
 29 CA     32.043000   34.417000   24.125000 C     4 ALA     0.0337 ****
 30 HA     32.068000   35.287000   24.784000 H     4 ALA     0.0823 ****
 31 CB     33.484000   33.973000   23.833000 C     4 ALA    -0.1825 ****
 32 HB1    33.479000   33.097000   23.184000 H     4 ALA     0.0603 ****
 33 HB2    34.029000   34.779000   23.340000 H     4 ALA     0.0603 ****
 34 HB3    33.993000   33.727000   24.766000 H     4 ALA     0.0603 ****
 35 C      31.315000   34.811000   22.826000 C     4 ALA     0.5973 ****
 36 O      30.612000   33.991000   22.235000 O     4 ALA    -0.5679 ****
 37 N      31.507000   36.056000   22.372000 N     5 NME    -0.4157 ****
 38 H      32.104000   36.667000   22.906000 H     5 NME     0.2719 ****
 39 CH3    30.898000   36.581000   21.150000 C     5 NME    -0.1490 ****
 40 HH31   31.197000   37.619000   20.993000 H     5 NME     0.0976 ****
 41 HH32   31.214000   35.982000   20.294000 H     5 NME     0.0976 ****
 42 HH33   29.810000   36.528000   21.229000 H     5 NME     0.0976 ****
@<TRIPOS>BOND
    1     5     6 1
    2     5     7 1
    3     2     3 1
    4     2     4 1
    5     2     5 1
    6     1     2 1
    7    15    16 1
    8    15    17 1
    9    11    12 1
   10    11    13 1
   11    11    14 1
   12     9    10 1
   13     9    11 1
   14     9    15 1
   15     7     8 1
   16     7     9 1
   17    25    26 1
   18    25    27 1
   19    21    22 1
   20    21    23 1
   21    21    24 1
   22    19    20 1
   23    19    21 1
   24    19    25 1
   25    17    18 1
   26    17    19 1
   27    35    36 1
   28    35    37 1
   29    31    32 1
   30    31    33 1
   31    31    34 1
   32    29    30 1
   33    29    31 1
   34    29    35 1
   35    27    28 1
   36    27    29 1
   37    39    40 1
   38    39    41 1
   39    39    42 1
   40    37    38 1
   41    37    39 1
@<TRIPOS>SUBSTRUCTURE
      1  ACE              1 ****               0 ****  **** 
      2  ALA              7 ****               0 ****  **** 
      3  ALA             17 ****               0 ****  **** 
      4  ALA             27 ****               0 ****  **** 
      5  NME             37 ****               0 ****  **** 
