@<TRIPOS>MOLECULE
default_name
   42    41     5     0     1 
SMALL
USER_CHARGES
@<TRIPOS>ATOM
  1 H1     25.320000   27.762000   24.284000 H     1 ACE     0.1123 ****
  2 CH3    26.087000   27.714000   23.512000 C     1 ACE    -0.3662 ****
  3 H2     25.784000   28.320000   22.661000 H     1 ACE     0.1123 ****
  4 H3     26.228000   26.680000   23.203000 H     1 ACE     0.1123 ****
  5 C      27.381000   28.252000   24.074000 C     1 ACE     0.5972 ****
  6 O      27.434000   28.650000   25.231000 O     1 ACE    -0.5679 ****
  7 N      28.431000   28.263000   23.256000 N     2 ALA    -0.4157 ****
  8 H      28.308000   27.942000   22.310000 H     2 ALA     0.2719 ****
  9 CA     29.735000   28.812000   23.627000 C     2 ALA     0.0337 ****
 10 HA     29.983000   28.478000   24.636000 H     2 ALA     0.0823 ****
 11 CB     30.792000   28.237000   22.672000 C     2 ALA    -0.1825 ****
 12 HB1    30.569000   28.527000   21.644000 H     2 ALA     0.0603 ****
 13 HB2    31.775000   28.624000   22.942000 H     2 ALA     0.0603 ****
 14 HB3    30.807000   27.149000   22.746000 H     2 ALA     0.0603 ****
 15 C      29.712000   30.356000   23.628000 C     2 ALA     0.5973 ****
 16 O      29.848000   30.968000   22.575000 O     2 ALA    -0.5679 ****
 17 N      29.493000   30.940000   24.812000 N     3 ALA    -0.4157 ****
 18 H      29.270000   30.294000   25.554000 H     3 ALA     0.2719 ****
 19 CA     29.597000   32.340000   25.265000 C     3 ALA     0.0337 ****
 20 HA     28.762000   32.869000   24.804000 H     3 ALA     0.0823 ****
 21 CB     29.331000   32.345000   26.779000 C     3 ALA    -0.1825 ****
 22 HB1    30.132000   31.820000   27.301000 H     3 ALA     0.0603 ****
 23 HB2    29.290000   33.374000   27.141000 H     3 ALA     0.0603 ****
 24 HB3    28.378000   31.860000   26.995000 H     3 ALA     0.0603 ****
 25 C      30.859000   33.162000   24.870000 C     3 ALA     0.5973 ****
 26 O      31.659000   33.504000   25.741000 O     3 ALA    -0.5679 ****
 27 N      31.126000   33.414000   23.586000 N     4 ALA    -0.4157 ****
 28 H      30.397000   33.293000   22.905000 H     4 ALA     0.2719 ****
 29 CA     32.297000   34.171000   23.149000 C     4 ALA     0.0337 ****
 30 HA     33.169000   33.804000   23.693000 H     4 ALA     0.0823 ****
 31 CB     32.523000   33.907000   21.655000 C     4 ALA    -0.1825 ****
 32 HB1    31.669000   34.268000   21.081000 H     4 ALA     0.0603 ****
 33 HB2    33.422000   34.426000   21.320000 H     4 ALA     0.0603 ****
 34 HB3    32.645000   32.836000   21.483000 H     4 ALA     0.0603 ****
 35 C      32.140000   35.676000   23.446000 C     4 ALA     0.5973 ****
 36 O      31.079000   36.253000   23.210000 O     4 ALA    -0.5679 ****
 37 N      33.214000   36.318000   23.925000 N     5 NME    -0.4157 ****
 38 H      34.040000   35.773000   24.117000 H     5 NME     0.2719 ****
 39 CH3    33.236000   37.743000   24.249000 C     5 NME    -0.1490 ****
 40 HH31   32.507000   37.950000   25.035000 H     5 NME     0.0976 ****
 41 HH32   34.229000   38.038000   24.592000 H     5 NME     0.0976 ****
 42 HH33   32.970000   38.326000   23.366000 H     5 NME     0.0976 ****
@<TRIPOS>BOND
    1     5     6 1
    2     5     7 1
    3     2     3 1
    4     2     4 1
    5     2     5 1
    6     1     2 1
    7    15    16 1
    8    15    17 1
    9    11    12 1
   10    11    13 1
   11    11    14 1
   12     9    10 1
   13     9    11 1
   14     9    15 1
   15     7     8 1
   16     7     9 1
   17    25    26 1
   18    25    27 1
   19    21    22 1
   20    21    23 1
   21    21    24 1
   22    19    20 1
   23    19    21 1
   24    19    25 1
   25    17    18 1
   26    17    19 1
   27    35    36 1
   28    35    37 1
   29    31    32 1
   30    31    33 1
   31    31    34 1
   32    29    30 1
   33    29    31 1
   34    29    35 1
   35    27    28 1
   36    27    29 1
   37    39    40 1
   38    39    41 1
   39    39    42 1
   40    37    38 1
   41    37    39 1
@<TRIPOS>SUBSTRUCTURE
      1  ACE              1 ****               0 ****  **** 
      2  ALA              7 ****               0 ****  **** 
      3  ALA             17 ****               0 ****  **** 
      4  ALA             27 ****               0 ****  **** 
      5  NME             37 ****               0 ****  **** 
