@<TRIPOS>MOLECULE
default_name
   42    41     5     0     1 
SMALL
USER_CHARGES
@<TRIPOS>ATOM
  1 H1     28.650000   29.885000   19.986000 H     1 ACE     0.1123 ****
  2 CH3    29.216000   29.177000   20.589000 C     1 ACE    -0.3662 ****
  3 H2     30.269000   29.454000   20.578000 H     1 ACE     0.1123 ****
  4 H3     29.089000   28.174000   20.188000 H     1 ACE     0.1123 ****
  5 C      28.701000   29.222000   22.008000 C     1 ACE     0.5972 ****
  6 O      27.816000   30.007000   22.318000 O     1 ACE    -0.5679 ****
  7 N      29.279000   28.397000   22.880000 N     2 ALA    -0.4157 ****
  8 H      30.009000   27.792000   22.544000 H     2 ALA     0.2719 ****
  9 CA     28.903000   28.283000   24.298000 C     2 ALA     0.0337 ****
 10 HA     27.814000   28.263000   24.355000 H     2 ALA     0.0823 ****
 11 CB     29.428000   26.935000   24.812000 C     2 ALA    -0.1825 ****
 12 HB1    30.519000   26.928000   24.799000 H     2 ALA     0.0603 ****
 13 HB2    29.087000   26.775000   25.836000 H     2 ALA     0.0603 ****
 14 HB3    29.049000   26.124000   24.189000 H     2 ALA     0.0603 ****
 15 C      29.361000   29.463000   25.194000 C     2 ALA     0.5973 ****
 16 O      29.243000   29.387000   26.415000 O     2 ALA    -0.5679 ****
 17 N      29.876000   30.543000   24.597000 N     3 ALA    -0.4157 ****
 18 H      29.893000   30.525000   23.589000 H     3 ALA     0.2719 ****
 19 CA     30.600000   31.660000   25.208000 C     3 ALA     0.0337 ****
 20 HA     29.912000   32.266000   25.798000 H     3 ALA     0.0823 ****
 21 CB     31.747000   31.152000   26.103000 C     3 ALA    -0.1825 ****
 22 HB1    32.387000   30.471000   25.541000 H     3 ALA     0.0603 ****
 23 HB2    32.345000   31.995000   26.449000 H     3 ALA     0.0603 ****
 24 HB3    31.352000   30.635000   26.977000 H     3 ALA     0.0603 ****
 25 C      31.227000   32.503000   24.082000 C     3 ALA     0.5973 ****
 26 O      31.787000   31.957000   23.133000 O     3 ALA    -0.5679 ****
 27 N      31.087000   33.830000   24.172000 N     4 ALA    -0.4157 ****
 28 H      30.636000   34.197000   24.992000 H     4 ALA     0.2719 ****
 29 CA     31.635000   34.783000   23.196000 C     4 ALA     0.0337 ****
 30 HA     32.601000   34.416000   22.842000 H     4 ALA     0.0823 ****
 31 CB     30.679000   34.862000   21.996000 C     4 ALA    -0.1825 ****
 32 HB1    29.694000   35.206000   22.314000 H     4 ALA     0.0603 ****
 33 HB2    31.080000   35.557000   21.257000 H     4 ALA     0.0603 ****
 34 HB3    30.584000   33.879000   21.531000 H     4 ALA     0.0603 ****
 35 C      31.871000   36.185000   23.793000 C     4 ALA     0.5973 ****
 36 O      32.902000   36.796000   23.533000 O     4 ALA    -0.5679 ****
 37 N      30.937000   36.681000   24.618000 N     5 NME    -0.4157 ****
 38 H      30.086000   36.157000   24.740000 H     5 NME     0.2719 ****
 39 CH3    31.043000   37.979000   25.282000 C     5 NME    -0.1490 ****
 40 HH31   31.940000   38.003000   25.905000 H     5 NME     0.0976 ****
 41 HH32   31.123000   38.770000   24.533000 H     5 NME     0.0976 ****
 42 HH33   30.167000   38.162000   25.906000 H     5 NME     0.0976 ****
@<TRIPOS>BOND
    1     5     6 1
    2     5     7 1
    3     2     3 1
    4     2     4 1
    5     2     5 1
    6     1     2 1
    7    15    16 1
    8    15    17 1
    9    11    12 1
   10    11    13 1
   11    11    14 1
   12     9    10 1
   13     9    11 1
   14     9    15 1
   15     7     8 1
   16     7     9 1
   17    25    26 1
   18    25    27 1
   19    21    22 1
   20    21    23 1
   21    21    24 1
   22    19    20 1
   23    19    21 1
   24    19    25 1
   25    17    18 1
   26    17    19 1
   27    35    36 1
   28    35    37 1
   29    31    32 1
   30    31    33 1
   31    31    34 1
   32    29    30 1
   33    29    31 1
   34    29    35 1
   35    27    28 1
   36    27    29 1
   37    39    40 1
   38    39    41 1
   39    39    42 1
   40    37    38 1
   41    37    39 1
@<TRIPOS>SUBSTRUCTURE
      1  ACE              1 ****               0 ****  **** 
      2  ALA              7 ****               0 ****  **** 
      3  ALA             17 ****               0 ****  **** 
      4  ALA             27 ****               0 ****  **** 
      5  NME             37 ****               0 ****  **** 
