@<TRIPOS>MOLECULE
default_name
   42    41     5     0     1 
SMALL
USER_CHARGES
@<TRIPOS>ATOM
  1 H1     25.661000   28.145000   24.716000 H     1 ACE     0.1123 ****
  2 CH3    26.033000   28.559000   23.780000 C     1 ACE    -0.3662 ****
  3 H2     25.483000   29.467000   23.541000 H     1 ACE     0.1123 ****
  4 H3     25.908000   27.828000   22.984000 H     1 ACE     0.1123 ****
  5 C      27.499000   28.887000   23.937000 C     1 ACE     0.5972 ****
  6 O      28.069000   28.676000   25.000000 O     1 ACE    -0.5679 ****
  7 N      28.116000   29.406000   22.878000 N     2 ALA    -0.4157 ****
  8 H      27.579000   29.569000   22.042000 H     2 ALA     0.2719 ****
  9 CA     29.517000   29.824000   22.885000 C     2 ALA     0.0337 ****
 10 HA     30.109000   29.050000   23.379000 H     2 ALA     0.0823 ****
 11 CB     30.000000   29.926000   21.431000 C     2 ALA    -0.1825 ****
 12 HB1    29.416000   30.675000   20.892000 H     2 ALA     0.0603 ****
 13 HB2    31.050000   30.218000   21.413000 H     2 ALA     0.0603 ****
 14 HB3    29.893000   28.961000   20.935000 H     2 ALA     0.0603 ****
 15 C      29.706000   31.140000   23.671000 C     2 ALA     0.5973 ****
 16 O      29.585000   32.230000   23.116000 O     2 ALA    -0.5679 ****
 17 N      30.030000   31.044000   24.964000 N     3 ALA    -0.4157 ****
 18 H      30.054000   30.121000   25.374000 H     3 ALA     0.2719 ****
 19 CA     30.109000   32.184000   25.887000 C     3 ALA     0.0337 ****
 20 HA     29.191000   32.765000   25.782000 H     3 ALA     0.0823 ****
 21 CB     30.147000   31.620000   27.314000 C     3 ALA    -0.1825 ****
 22 HB1    31.064000   31.050000   27.468000 H     3 ALA     0.0603 ****
 23 HB2    30.116000   32.440000   28.033000 H     3 ALA     0.0603 ****
 24 HB3    29.284000   30.975000   27.483000 H     3 ALA     0.0603 ****
 25 C      31.277000   33.171000   25.633000 C     3 ALA     0.5973 ****
 26 O      31.419000   34.147000   26.362000 O     3 ALA    -0.5679 ****
 27 N      32.096000   32.950000   24.599000 N     4 ALA    -0.4157 ****
 28 H      31.910000   32.150000   24.020000 H     4 ALA     0.2719 ****
 29 CA     33.167000   33.859000   24.177000 C     4 ALA     0.0337 ****
 30 HA     33.672000   34.238000   25.067000 H     4 ALA     0.0823 ****
 31 CB     34.178000   33.040000   23.363000 C     4 ALA    -0.1825 ****
 32 HB1    33.709000   32.662000   22.454000 H     4 ALA     0.0603 ****
 33 HB2    35.022000   33.675000   23.088000 H     4 ALA     0.0603 ****
 34 HB3    34.548000   32.205000   23.960000 H     4 ALA     0.0603 ****
 35 C      32.675000   35.096000   23.386000 C     4 ALA     0.5973 ****
 36 O      33.477000   35.973000   23.072000 O     4 ALA    -0.5679 ****
 37 N      31.381000   35.164000   23.039000 N     5 NME    -0.4157 ****
 38 H      30.780000   34.404000   23.320000 H     5 NME     0.2719 ****
 39 CH3    30.784000   36.273000   22.298000 C     5 NME    -0.1490 ****
 40 HH31   31.326000   36.425000   21.362000 H     5 NME     0.0976 ****
 41 HH32   29.738000   36.057000   22.079000 H     5 NME     0.0976 ****
 42 HH33   30.849000   37.187000   22.892000 H     5 NME     0.0976 ****
@<TRIPOS>BOND
    1     5     6 1
    2     5     7 1
    3     2     3 1
    4     2     4 1
    5     2     5 1
    6     1     2 1
    7    15    16 1
    8    15    17 1
    9    11    12 1
   10    11    13 1
   11    11    14 1
   12     9    10 1
   13     9    11 1
   14     9    15 1
   15     7     8 1
   16     7     9 1
   17    25    26 1
   18    25    27 1
   19    21    22 1
   20    21    23 1
   21    21    24 1
   22    19    20 1
   23    19    21 1
   24    19    25 1
   25    17    18 1
   26    17    19 1
   27    35    36 1
   28    35    37 1
   29    31    32 1
   30    31    33 1
   31    31    34 1
   32    29    30 1
   33    29    31 1
   34    29    35 1
   35    27    28 1
   36    27    29 1
   37    39    40 1
   38    39    41 1
   39    39    42 1
   40    37    38 1
   41    37    39 1
@<TRIPOS>SUBSTRUCTURE
      1  ACE              1 ****               0 ****  **** 
      2  ALA              7 ****               0 ****  **** 
      3  ALA             17 ****               0 ****  **** 
      4  ALA             27 ****               0 ****  **** 
      5  NME             37 ****               0 ****  **** 
