@<TRIPOS>MOLECULE
default_name
   42    41     5     0     1 
SMALL
USER_CHARGES
@<TRIPOS>ATOM
  1 H1     25.822000   28.293000   22.944000 H     1 ACE     0.1123 ****
  2 CH3    26.769000   28.413000   22.420000 C     1 ACE    -0.3662 ****
  3 H2     26.732000   29.309000   21.803000 H     1 ACE     0.1123 ****
  4 H3     26.950000   27.539000   21.798000 H     1 ACE     0.1123 ****
  5 C      27.878000   28.542000   23.438000 C     1 ACE     0.5972 ****
  6 O      27.624000   28.504000   24.632000 O     1 ACE    -0.5679 ****
  7 N      29.109000   28.722000   22.961000 N     2 ALA    -0.4157 ****
  8 H      29.227000   28.734000   21.962000 H     2 ALA     0.2719 ****
  9 CA     30.326000   28.764000   23.785000 C     2 ALA     0.0337 ****
 10 HA     30.251000   27.969000   24.529000 H     2 ALA     0.0823 ****
 11 CB     31.515000   28.435000   22.868000 C     2 ALA    -0.1825 ****
 12 HB1    31.649000   29.225000   22.129000 H     2 ALA     0.0603 ****
 13 HB2    32.425000   28.352000   23.464000 H     2 ALA     0.0603 ****
 14 HB3    31.345000   27.484000   22.362000 H     2 ALA     0.0603 ****
 15 C      30.553000   30.075000   24.584000 C     2 ALA     0.5973 ****
 16 O      31.647000   30.291000   25.095000 O     2 ALA    -0.5679 ****
 17 N      29.562000   30.975000   24.647000 N     3 ALA    -0.4157 ****
 18 H      28.683000   30.711000   24.236000 H     3 ALA     0.2719 ****
 19 CA     29.570000   32.203000   25.457000 C     3 ALA     0.0337 ****
 20 HA     28.653000   32.737000   25.209000 H     3 ALA     0.0823 ****
 21 CB     29.464000   31.838000   26.947000 C     3 ALA    -0.1825 ****
 22 HB1    30.381000   31.348000   27.277000 H     3 ALA     0.0603 ****
 23 HB2    29.317000   32.742000   27.538000 H     3 ALA     0.0603 ****
 24 HB3    28.618000   31.168000   27.109000 H     3 ALA     0.0603 ****
 25 C      30.709000   33.198000   25.121000 C     3 ALA     0.5973 ****
 26 O      31.142000   33.977000   25.968000 O     3 ALA    -0.5679 ****
 27 N      31.158000   33.219000   23.862000 N     4 ALA    -0.4157 ****
 28 H      30.776000   32.554000   23.212000 H     4 ALA     0.2719 ****
 29 CA     32.185000   34.136000   23.373000 C     4 ALA     0.0337 ****
 30 HA     32.970000   34.216000   24.127000 H     4 ALA     0.0823 ****
 31 CB     32.810000   33.524000   22.111000 C     4 ALA    -0.1825 ****
 32 HB1    32.052000   33.406000   21.335000 H     4 ALA     0.0603 ****
 33 HB2    33.596000   34.183000   21.739000 H     4 ALA     0.0603 ****
 34 HB3    33.245000   32.552000   22.346000 H     4 ALA     0.0603 ****
 35 C      31.606000   35.546000   23.136000 C     4 ALA     0.5973 ****
 36 O      31.074000   35.835000   22.064000 O     4 ALA    -0.5679 ****
 37 N      31.701000   36.420000   24.145000 N     5 NME    -0.4157 ****
 38 H      32.077000   36.080000   25.020000 H     5 NME     0.2719 ****
 39 CH3    31.209000   37.795000   24.094000 C     5 NME    -0.1490 ****
 40 HH31   30.136000   37.793000   23.896000 H     5 NME     0.0976 ****
 41 HH32   31.399000   38.297000   25.043000 H     5 NME     0.0976 ****
 42 HH33   31.712000   38.336000   23.290000 H     5 NME     0.0976 ****
@<TRIPOS>BOND
    1     5     6 1
    2     5     7 1
    3     2     3 1
    4     2     4 1
    5     2     5 1
    6     1     2 1
    7    15    16 1
    8    15    17 1
    9    11    12 1
   10    11    13 1
   11    11    14 1
   12     9    10 1
   13     9    11 1
   14     9    15 1
   15     7     8 1
   16     7     9 1
   17    25    26 1
   18    25    27 1
   19    21    22 1
   20    21    23 1
   21    21    24 1
   22    19    20 1
   23    19    21 1
   24    19    25 1
   25    17    18 1
   26    17    19 1
   27    35    36 1
   28    35    37 1
   29    31    32 1
   30    31    33 1
   31    31    34 1
   32    29    30 1
   33    29    31 1
   34    29    35 1
   35    27    28 1
   36    27    29 1
   37    39    40 1
   38    39    41 1
   39    39    42 1
   40    37    38 1
   41    37    39 1
@<TRIPOS>SUBSTRUCTURE
      1  ACE              1 ****               0 ****  **** 
      2  ALA              7 ****               0 ****  **** 
      3  ALA             17 ****               0 ****  **** 
      4  ALA             27 ****               0 ****  **** 
      5  NME             37 ****               0 ****  **** 
