@<TRIPOS>MOLECULE
default_name
   42    41     5     0     1 
SMALL
USER_CHARGES
@<TRIPOS>ATOM
  1 H1     27.773000   26.097000   27.088000 H     1 ACE     0.1123 ****
  2 CH3    27.584000   27.082000   26.663000 C     1 ACE    -0.3662 ****
  3 H2     27.933000   27.850000   27.351000 H     1 ACE     0.1123 ****
  4 H3     26.519000   27.203000   26.479000 H     1 ACE     0.1123 ****
  5 C      28.334000   27.204000   25.357000 C     1 ACE     0.5972 ****
  6 O      29.012000   26.270000   24.949000 O     1 ACE    -0.5679 ****
  7 N      28.212000   28.359000   24.708000 N     2 ALA    -0.4157 ****
  8 H      27.663000   29.096000   25.126000 H     2 ALA     0.2719 ****
  9 CA     28.889000   28.687000   23.453000 C     2 ALA     0.0337 ****
 10 HA     29.874000   28.217000   23.453000 H     2 ALA     0.0823 ****
 11 CB     28.074000   28.119000   22.282000 C     2 ALA    -0.1825 ****
 12 HB1    27.081000   28.572000   22.265000 H     2 ALA     0.0603 ****
 13 HB2    28.579000   28.329000   21.339000 H     2 ALA     0.0603 ****
 14 HB3    27.973000   27.038000   22.391000 H     2 ALA     0.0603 ****
 15 C      29.087000   30.208000   23.314000 C     2 ALA     0.5973 ****
 16 O      28.391000   30.981000   23.972000 O     2 ALA    -0.5679 ****
 17 N      30.033000   30.610000   22.456000 N     3 ALA    -0.4157 ****
 18 H      30.582000   29.885000   22.023000 H     3 ALA     0.2719 ****
 19 CA     30.423000   31.994000   22.143000 C     3 ALA     0.0337 ****
 20 HA     30.944000   31.934000   21.187000 H     3 ALA     0.0823 ****
 21 CB     29.208000   32.901000   21.864000 C     3 ALA    -0.1825 ****
 22 HB1    28.723000   33.187000   22.799000 H     3 ALA     0.0603 ****
 23 HB2    29.529000   33.806000   21.349000 H     3 ALA     0.0603 ****
 24 HB3    28.489000   32.378000   21.232000 H     3 ALA     0.0603 ****
 25 C      31.493000   32.542000   23.113000 C     3 ALA     0.5973 ****
 26 O      32.174000   31.775000   23.792000 O     3 ALA    -0.5679 ****
 27 N      31.669000   33.865000   23.157000 N     4 ALA    -0.4157 ****
 28 H      31.056000   34.454000   22.610000 H     4 ALA     0.2719 ****
 29 CA     32.610000   34.559000   24.036000 C     4 ALA     0.0337 ****
 30 HA     32.678000   34.015000   24.980000 H     4 ALA     0.0823 ****
 31 CB     33.997000   34.570000   23.375000 C     4 ALA    -0.1825 ****
 32 HB1    33.952000   35.105000   22.425000 H     4 ALA     0.0603 ****
 33 HB2    34.717000   35.063000   24.028000 H     4 ALA     0.0603 ****
 34 HB3    34.331000   33.547000   23.196000 H     4 ALA     0.0603 ****
 35 C      32.120000   35.986000   24.341000 C     4 ALA     0.5973 ****
 36 O      31.321000   36.543000   23.587000 O     4 ALA    -0.5679 ****
 37 N      32.611000   36.580000   25.436000 N     5 NME    -0.4157 ****
 38 H      33.265000   36.062000   26.001000 H     5 NME     0.2719 ****
 39 CH3    32.252000   37.932000   25.862000 C     5 NME    -0.1490 ****
 40 HH31   31.176000   37.989000   26.039000 H     5 NME     0.0976 ****
 41 HH32   32.782000   38.194000   26.778000 H     5 NME     0.0976 ****
 42 HH33   32.511000   38.647000   25.078000 H     5 NME     0.0976 ****
@<TRIPOS>BOND
    1     5     6 1
    2     5     7 1
    3     2     3 1
    4     2     4 1
    5     2     5 1
    6     1     2 1
    7    15    16 1
    8    15    17 1
    9    11    12 1
   10    11    13 1
   11    11    14 1
   12     9    10 1
   13     9    11 1
   14     9    15 1
   15     7     8 1
   16     7     9 1
   17    25    26 1
   18    25    27 1
   19    21    22 1
   20    21    23 1
   21    21    24 1
   22    19    20 1
   23    19    21 1
   24    19    25 1
   25    17    18 1
   26    17    19 1
   27    35    36 1
   28    35    37 1
   29    31    32 1
   30    31    33 1
   31    31    34 1
   32    29    30 1
   33    29    31 1
   34    29    35 1
   35    27    28 1
   36    27    29 1
   37    39    40 1
   38    39    41 1
   39    39    42 1
   40    37    38 1
   41    37    39 1
@<TRIPOS>SUBSTRUCTURE
      1  ACE              1 ****               0 ****  **** 
      2  ALA              7 ****               0 ****  **** 
      3  ALA             17 ****               0 ****  **** 
      4  ALA             27 ****               0 ****  **** 
      5  NME             37 ****               0 ****  **** 
