@<TRIPOS>MOLECULE
default_name
   42    41     5     0     1 
SMALL
USER_CHARGES
@<TRIPOS>ATOM
  1 H1     27.076000   27.014000   26.805000 H     1 ACE     0.1123 ****
  2 CH3    26.904000   27.992000   26.359000 C     1 ACE    -0.3662 ****
  3 H2     26.913000   28.763000   27.127000 H     1 ACE     0.1123 ****
  4 H3     25.948000   27.992000   25.839000 H     1 ACE     0.1123 ****
  5 C      28.018000   28.265000   25.383000 C     1 ACE     0.5972 ****
  6 O      29.130000   27.789000   25.568000 O     1 ACE    -0.5679 ****
  7 N      27.721000   29.030000   24.341000 N     2 ALA    -0.4157 ****
  8 H      26.807000   29.461000   24.291000 H     2 ALA     0.2719 ****
  9 CA     28.655000   29.321000   23.258000 C     2 ALA     0.0337 ****
 10 HA     29.675000   29.265000   23.637000 H     2 ALA     0.0823 ****
 11 CB     28.475000   28.247000   22.171000 C     2 ALA    -0.1825 ****
 12 HB1    27.441000   28.222000   21.819000 H     2 ALA     0.0603 ****
 13 HB2    29.134000   28.457000   21.331000 H     2 ALA     0.0603 ****
 14 HB3    28.726000   27.265000   22.579000 H     2 ALA     0.0603 ****
 15 C      28.373000   30.762000   22.802000 C     2 ALA     0.5973 ****
 16 O      27.247000   31.056000   22.409000 O     2 ALA    -0.5679 ****
 17 N      29.306000   31.708000   22.975000 N     3 ALA    -0.4157 ****
 18 H      28.953000   32.627000   23.219000 H     3 ALA     0.2719 ****
 19 CA     30.696000   31.661000   22.494000 C     3 ALA     0.0337 ****
 20 HA     31.233000   30.801000   22.901000 H     3 ALA     0.0823 ****
 21 CB     30.685000   31.575000   20.956000 C     3 ALA    -0.1825 ****
 22 HB1    31.690000   31.762000   20.575000 H     3 ALA     0.0603 ****
 23 HB2    30.348000   30.601000   20.601000 H     3 ALA     0.0603 ****
 24 HB3    30.029000   32.353000   20.561000 H     3 ALA     0.0603 ****
 25 C      31.447000   32.951000   22.902000 C     3 ALA     0.5973 ****
 26 O      31.444000   33.956000   22.196000 O     3 ALA    -0.5679 ****
 27 N      32.110000   32.876000   24.056000 N     4 ALA    -0.4157 ****
 28 H      32.090000   31.982000   24.511000 H     4 ALA     0.2719 ****
 29 CA     32.799000   33.969000   24.759000 C     4 ALA     0.0337 ****
 30 HA     33.045000   33.566000   25.740000 H     4 ALA     0.0823 ****
 31 CB     34.142000   34.220000   24.058000 C     4 ALA    -0.1825 ****
 32 HB1    33.963000   34.641000   23.067000 H     4 ALA     0.0603 ****
 33 HB2    34.746000   34.897000   24.661000 H     4 ALA     0.0603 ****
 34 HB3    34.697000   33.285000   23.953000 H     4 ALA     0.0603 ****
 35 C      31.926000   35.241000   25.028000 C     4 ALA     0.5973 ****
 36 O      30.702000   35.139000   25.090000 O     4 ALA    -0.5679 ****
 37 N      32.551000   36.413000   25.278000 N     5 NME    -0.4157 ****
 38 H      33.555000   36.419000   25.209000 H     5 NME     0.2719 ****
 39 CH3    31.923000   37.711000   25.585000 C     5 NME    -0.1490 ****
 40 HH31   32.183000   38.036000   26.596000 H     5 NME     0.0976 ****
 41 HH32   32.287000   38.466000   24.888000 H     5 NME     0.0976 ****
 42 HH33   30.834000   37.681000   25.498000 H     5 NME     0.0976 ****
@<TRIPOS>BOND
    1     5     6 1
    2     5     7 1
    3     2     3 1
    4     2     4 1
    5     2     5 1
    6     1     2 1
    7    15    16 1
    8    15    17 1
    9    11    12 1
   10    11    13 1
   11    11    14 1
   12     9    10 1
   13     9    11 1
   14     9    15 1
   15     7     8 1
   16     7     9 1
   17    25    26 1
   18    25    27 1
   19    21    22 1
   20    21    23 1
   21    21    24 1
   22    19    20 1
   23    19    21 1
   24    19    25 1
   25    17    18 1
   26    17    19 1
   27    35    36 1
   28    35    37 1
   29    31    32 1
   30    31    33 1
   31    31    34 1
   32    29    30 1
   33    29    31 1
   34    29    35 1
   35    27    28 1
   36    27    29 1
   37    39    40 1
   38    39    41 1
   39    39    42 1
   40    37    38 1
   41    37    39 1
@<TRIPOS>SUBSTRUCTURE
      1  ACE              1 ****               0 ****  **** 
      2  ALA              7 ****               0 ****  **** 
      3  ALA             17 ****               0 ****  **** 
      4  ALA             27 ****               0 ****  **** 
      5  NME             37 ****               0 ****  **** 
