@<TRIPOS>MOLECULE
default_name
   42    41     5     0     1 
SMALL
USER_CHARGES
@<TRIPOS>ATOM
  1 H1     27.650000   30.215000   19.561000 H     1 ACE     0.1123 ****
  2 CH3    28.519000   30.061000   20.200000 C     1 ACE    -0.3662 ****
  3 H2     29.264000   30.827000   19.994000 H     1 ACE     0.1123 ****
  4 H3     28.937000   29.074000   20.013000 H     1 ACE     0.1123 ****
  5 C      28.087000   30.154000   21.644000 C     1 ACE     0.5972 ****
  6 O      26.916000   30.369000   21.925000 O     1 ACE    -0.5679 ****
  7 N      29.040000   30.012000   22.561000 N     2 ALA    -0.4157 ****
  8 H      29.990000   29.875000   22.251000 H     2 ALA     0.2719 ****
  9 CA     28.821000   30.084000   24.007000 C     2 ALA     0.0337 ****
 10 HA     27.927000   30.680000   24.199000 H     2 ALA     0.0823 ****
 11 CB     28.578000   28.667000   24.545000 C     2 ALA    -0.1825 ****
 12 HB1    29.456000   28.044000   24.367000 H     2 ALA     0.0603 ****
 13 HB2    28.377000   28.705000   25.616000 H     2 ALA     0.0603 ****
 14 HB3    27.716000   28.226000   24.042000 H     2 ALA     0.0603 ****
 15 C      30.003000   30.774000   24.709000 C     2 ALA     0.5973 ****
 16 O      31.108000   30.792000   24.173000 O     2 ALA    -0.5679 ****
 17 N      29.753000   31.337000   25.897000 N     3 ALA    -0.4157 ****
 18 H      28.812000   31.229000   26.244000 H     3 ALA     0.2719 ****
 19 CA     30.620000   32.216000   26.701000 C     3 ALA     0.0337 ****
 20 HA     30.014000   32.562000   27.540000 H     3 ALA     0.0823 ****
 21 CB     31.768000   31.402000   27.319000 C     3 ALA    -0.1825 ****
 22 HB1    32.418000   31.002000   26.540000 H     3 ALA     0.0603 ****
 23 HB2    32.355000   32.041000   27.980000 H     3 ALA     0.0603 ****
 24 HB3    31.362000   30.573000   27.902000 H     3 ALA     0.0603 ****
 25 C      31.083000   33.508000   25.988000 C     3 ALA     0.5973 ****
 26 O      30.493000   34.555000   26.229000 O     3 ALA    -0.5679 ****
 27 N      32.045000   33.447000   25.061000 N     4 ALA    -0.4157 ****
 28 H      32.565000   32.591000   24.960000 H     4 ALA     0.2719 ****
 29 CA     32.406000   34.559000   24.173000 C     4 ALA     0.0337 ****
 30 HA     32.424000   35.482000   24.755000 H     4 ALA     0.0823 ****
 31 CB     33.824000   34.294000   23.649000 C     4 ALA    -0.1825 ****
 32 HB1    33.839000   33.383000   23.050000 H     4 ALA     0.0603 ****
 33 HB2    34.144000   35.132000   23.027000 H     4 ALA     0.0603 ****
 34 HB3    34.518000   34.193000   24.485000 H     4 ALA     0.0603 ****
 35 C      31.411000   34.785000   23.008000 C     4 ALA     0.5973 ****
 36 O      31.520000   35.779000   22.295000 O     4 ALA    -0.5679 ****
 37 N      30.458000   33.865000   22.799000 N     5 NME    -0.4157 ****
 38 H      30.454000   33.068000   23.414000 H     5 NME     0.2719 ****
 39 CH3    29.432000   33.948000   21.761000 C     5 NME    -0.1490 ****
 40 HH31   28.931000   34.917000   21.819000 H     5 NME     0.0976 ****
 41 HH32   29.896000   33.856000   20.777000 H     5 NME     0.0976 ****
 42 HH33   28.694000   33.156000   21.892000 H     5 NME     0.0976 ****
@<TRIPOS>BOND
    1     5     6 1
    2     5     7 1
    3     2     3 1
    4     2     4 1
    5     2     5 1
    6     1     2 1
    7    15    16 1
    8    15    17 1
    9    11    12 1
   10    11    13 1
   11    11    14 1
   12     9    10 1
   13     9    11 1
   14     9    15 1
   15     7     8 1
   16     7     9 1
   17    25    26 1
   18    25    27 1
   19    21    22 1
   20    21    23 1
   21    21    24 1
   22    19    20 1
   23    19    21 1
   24    19    25 1
   25    17    18 1
   26    17    19 1
   27    35    36 1
   28    35    37 1
   29    31    32 1
   30    31    33 1
   31    31    34 1
   32    29    30 1
   33    29    31 1
   34    29    35 1
   35    27    28 1
   36    27    29 1
   37    39    40 1
   38    39    41 1
   39    39    42 1
   40    37    38 1
   41    37    39 1
@<TRIPOS>SUBSTRUCTURE
      1  ACE              1 ****               0 ****  **** 
      2  ALA              7 ****               0 ****  **** 
      3  ALA             17 ****               0 ****  **** 
      4  ALA             27 ****               0 ****  **** 
      5  NME             37 ****               0 ****  **** 
