@<TRIPOS>MOLECULE
default_name
   42    41     5     0     1 
SMALL
USER_CHARGES
@<TRIPOS>ATOM
  1 H1     25.833000   27.967000   24.832000 H     1 ACE     0.1123 ****
  2 CH3    26.122000   28.427000   23.887000 C     1 ACE    -0.3662 ****
  3 H2     25.512000   29.311000   23.712000 H     1 ACE     0.1123 ****
  4 H3     25.983000   27.712000   23.078000 H     1 ACE     0.1123 ****
  5 C      27.576000   28.826000   23.962000 C     1 ACE     0.5972 ****
  6 O      28.225000   28.616000   24.979000 O     1 ACE    -0.5679 ****
  7 N      28.096000   29.406000   22.882000 N     2 ALA    -0.4157 ****
  8 H      27.500000   29.564000   22.086000 H     2 ALA     0.2719 ****
  9 CA     29.472000   29.897000   22.813000 C     2 ALA     0.0337 ****
 10 HA     30.133000   29.143000   23.244000 H     2 ALA     0.0823 ****
 11 CB     29.853000   30.064000   21.335000 C     2 ALA    -0.1825 ****
 12 HB1    29.198000   30.794000   20.856000 H     2 ALA     0.0603 ****
 13 HB2    30.884000   30.413000   21.259000 H     2 ALA     0.0603 ****
 14 HB3    29.766000   29.108000   20.818000 H     2 ALA     0.0603 ****
 15 C      29.643000   31.200000   23.624000 C     2 ALA     0.5973 ****
 16 O      29.444000   32.298000   23.110000 O     2 ALA    -0.5679 ****
 17 N      30.050000   31.089000   24.892000 N     3 ALA    -0.4157 ****
 18 H      30.146000   30.160000   25.277000 H     3 ALA     0.2719 ****
 19 CA     30.054000   32.210000   25.841000 C     3 ALA     0.0337 ****
 20 HA     29.119000   32.762000   25.726000 H     3 ALA     0.0823 ****
 21 CB     30.083000   31.619000   27.256000 C     3 ALA    -0.1825 ****
 22 HB1    31.014000   31.074000   27.417000 H     3 ALA     0.0603 ****
 23 HB2    30.013000   32.424000   27.990000 H     3 ALA     0.0603 ****
 24 HB3    29.238000   30.943000   27.396000 H     3 ALA     0.0603 ****
 25 C      31.199000   33.228000   25.629000 C     3 ALA     0.5973 ****
 26 O      31.241000   34.251000   26.304000 O     3 ALA    -0.5679 ****
 27 N      32.108000   32.975000   24.681000 N     4 ALA    -0.4157 ****
 28 H      32.006000   32.126000   24.152000 H     4 ALA     0.2719 ****
 29 CA     33.175000   33.900000   24.285000 C     4 ALA     0.0337 ****
 30 HA     33.595000   34.349000   25.187000 H     4 ALA     0.0823 ****
 31 CB     34.276000   33.076000   23.604000 C     4 ALA    -0.1825 ****
 32 HB1    33.896000   32.630000   22.684000 H     4 ALA     0.0603 ****
 33 HB2    35.118000   33.726000   23.359000 H     4 ALA     0.0603 ****
 34 HB3    34.625000   32.291000   24.276000 H     4 ALA     0.0603 ****
 35 C      32.704000   35.071000   23.387000 C     4 ALA     0.5973 ****
 36 O      33.512000   35.929000   23.037000 O     4 ALA    -0.5679 ****
 37 N      31.424000   35.103000   22.988000 N     5 NME    -0.4157 ****
 38 H      30.813000   34.368000   23.309000 H     5 NME     0.2719 ****
 39 CH3    30.850000   36.147000   22.142000 C     5 NME    -0.1490 ****
 40 HH31   31.430000   36.235000   21.221000 H     5 NME     0.0976 ****
 41 HH32   29.816000   35.903000   21.896000 H     5 NME     0.0976 ****
 42 HH33   30.882000   37.103000   22.668000 H     5 NME     0.0976 ****
@<TRIPOS>BOND
    1     5     6 1
    2     5     7 1
    3     2     3 1
    4     2     4 1
    5     2     5 1
    6     1     2 1
    7    15    16 1
    8    15    17 1
    9    11    12 1
   10    11    13 1
   11    11    14 1
   12     9    10 1
   13     9    11 1
   14     9    15 1
   15     7     8 1
   16     7     9 1
   17    25    26 1
   18    25    27 1
   19    21    22 1
   20    21    23 1
   21    21    24 1
   22    19    20 1
   23    19    21 1
   24    19    25 1
   25    17    18 1
   26    17    19 1
   27    35    36 1
   28    35    37 1
   29    31    32 1
   30    31    33 1
   31    31    34 1
   32    29    30 1
   33    29    31 1
   34    29    35 1
   35    27    28 1
   36    27    29 1
   37    39    40 1
   38    39    41 1
   39    39    42 1
   40    37    38 1
   41    37    39 1
@<TRIPOS>SUBSTRUCTURE
      1  ACE              1 ****               0 ****  **** 
      2  ALA              7 ****               0 ****  **** 
      3  ALA             17 ****               0 ****  **** 
      4  ALA             27 ****               0 ****  **** 
      5  NME             37 ****               0 ****  **** 
