@<TRIPOS>MOLECULE
default_name
   42    41     5     0     1 
SMALL
USER_CHARGES
@<TRIPOS>ATOM
  1 H1     25.554000   28.435000   25.186000 H     1 ACE     0.1123 ****
  2 CH3    25.769000   29.141000   24.385000 C     1 ACE    -0.3662 ****
  3 H2     25.530000   30.151000   24.715000 H     1 ACE     0.1123 ****
  4 H3     25.177000   28.886000   23.509000 H     1 ACE     0.1123 ****
  5 C      27.237000   29.057000   24.039000 C     1 ACE     0.5972 ****
  6 O      27.967000   28.281000   24.637000 O     1 ACE    -0.5679 ****
  7 N      27.676000   29.877000   23.086000 N     2 ALA    -0.4157 ****
  8 H      27.009000   30.494000   22.652000 H     2 ALA     0.2719 ****
  9 CA     29.049000   29.893000   22.564000 C     2 ALA     0.0337 ****
 10 HA     29.367000   28.857000   22.433000 H     2 ALA     0.0823 ****
 11 CB     29.010000   30.551000   21.176000 C     2 ALA    -0.1825 ****
 12 HB1    28.733000   31.602000   21.269000 H     2 ALA     0.0603 ****
 13 HB2    29.994000   30.486000   20.710000 H     2 ALA     0.0603 ****
 14 HB3    28.290000   30.038000   20.539000 H     2 ALA     0.0603 ****
 15 C      30.103000   30.553000   23.491000 C     2 ALA     0.5973 ****
 16 O      31.206000   30.861000   23.040000 O     2 ALA    -0.5679 ****
 17 N      29.764000   30.839000   24.754000 N     3 ALA    -0.4157 ****
 18 H      28.844000   30.568000   25.058000 H     3 ALA     0.2719 ****
 19 CA     30.640000   31.464000   25.748000 C     3 ALA     0.0337 ****
 20 HA     30.071000   31.470000   26.678000 H     3 ALA     0.0823 ****
 21 CB     31.882000   30.603000   26.048000 C     3 ALA    -0.1825 ****
 22 HB1    32.552000   30.571000   25.188000 H     3 ALA     0.0603 ****
 23 HB2    32.418000   31.015000   26.903000 H     3 ALA     0.0603 ****
 24 HB3    31.571000   29.585000   26.289000 H     3 ALA     0.0603 ****
 25 C      30.860000   32.959000   25.440000 C     3 ALA     0.5973 ****
 26 O      29.894000   33.711000   25.353000 O     3 ALA    -0.5679 ****
 27 N      32.112000   33.389000   25.261000 N     4 ALA    -0.4157 ****
 28 H      32.856000   32.713000   25.319000 H     4 ALA     0.2719 ****
 29 CA     32.469000   34.772000   24.921000 C     4 ALA     0.0337 ****
 30 HA     31.889000   35.443000   25.557000 H     4 ALA     0.0823 ****
 31 CB     33.955000   34.964000   25.254000 C     4 ALA    -0.1825 ****
 32 HB1    34.568000   34.321000   24.621000 H     4 ALA     0.0603 ****
 33 HB2    34.236000   36.004000   25.077000 H     4 ALA     0.0603 ****
 34 HB3    34.137000   34.727000   26.303000 H     4 ALA     0.0603 ****
 35 C      32.162000   35.178000   23.458000 C     4 ALA     0.5973 ****
 36 O      32.333000   36.343000   23.103000 O     4 ALA    -0.5679 ****
 37 N      31.734000   34.237000   22.605000 N     5 NME    -0.4157 ****
 38 H      31.615000   33.303000   22.966000 H     5 NME     0.2719 ****
 39 CH3    31.409000   34.475000   21.201000 C     5 NME    -0.1490 ****
 40 HH31   32.266000   34.927000   20.697000 H     5 NME     0.0976 ****
 41 HH32   31.158000   33.533000   20.712000 H     5 NME     0.0976 ****
 42 HH33   30.562000   35.159000   21.132000 H     5 NME     0.0976 ****
@<TRIPOS>BOND
    1     5     6 1
    2     5     7 1
    3     2     3 1
    4     2     4 1
    5     2     5 1
    6     1     2 1
    7    15    16 1
    8    15    17 1
    9    11    12 1
   10    11    13 1
   11    11    14 1
   12     9    10 1
   13     9    11 1
   14     9    15 1
   15     7     8 1
   16     7     9 1
   17    25    26 1
   18    25    27 1
   19    21    22 1
   20    21    23 1
   21    21    24 1
   22    19    20 1
   23    19    21 1
   24    19    25 1
   25    17    18 1
   26    17    19 1
   27    35    36 1
   28    35    37 1
   29    31    32 1
   30    31    33 1
   31    31    34 1
   32    29    30 1
   33    29    31 1
   34    29    35 1
   35    27    28 1
   36    27    29 1
   37    39    40 1
   38    39    41 1
   39    39    42 1
   40    37    38 1
   41    37    39 1
@<TRIPOS>SUBSTRUCTURE
      1  ACE              1 ****               0 ****  **** 
      2  ALA              7 ****               0 ****  **** 
      3  ALA             17 ****               0 ****  **** 
      4  ALA             27 ****               0 ****  **** 
      5  NME             37 ****               0 ****  **** 
