@<TRIPOS>MOLECULE
default_name
   42    41     5     0     1 
SMALL
USER_CHARGES
@<TRIPOS>ATOM
  1 H1     25.493000   28.121000   24.734000 H     1 ACE     0.1123 ****
  2 CH3    26.175000   28.138000   23.884000 C     1 ACE    -0.3662 ****
  3 H2     25.870000   28.916000   23.187000 H     1 ACE     0.1123 ****
  4 H3     26.160000   27.168000   23.390000 H     1 ACE     0.1123 ****
  5 C      27.571000   28.423000   24.385000 C     1 ACE     0.5972 ****
  6 O      27.774000   28.590000   25.578000 O     1 ACE    -0.5679 ****
  7 N      28.531000   28.502000   23.465000 N     2 ALA    -0.4157 ****
  8 H      28.274000   28.345000   22.504000 H     2 ALA     0.2719 ****
  9 CA     29.962000   28.670000   23.758000 C     2 ALA     0.0337 ****
 10 HA     30.200000   28.038000   24.616000 H     2 ALA     0.0823 ****
 11 CB     30.747000   28.131000   22.552000 C     2 ALA    -0.1825 ****
 12 HB1    30.569000   28.757000   21.677000 H     2 ALA     0.0603 ****
 13 HB2    31.815000   28.135000   22.777000 H     2 ALA     0.0603 ****
 14 HB3    30.444000   27.105000   22.336000 H     2 ALA     0.0603 ****
 15 C      30.407000   30.104000   24.152000 C     2 ALA     0.5973 ****
 16 O      31.601000   30.381000   24.150000 O     2 ALA    -0.5679 ****
 17 N      29.458000   31.010000   24.436000 N     3 ALA    -0.4157 ****
 18 H      28.515000   30.661000   24.435000 H     3 ALA     0.2719 ****
 19 CA     29.623000   32.383000   24.940000 C     3 ALA     0.0337 ****
 20 HA     28.818000   32.987000   24.520000 H     3 ALA     0.0823 ****
 21 CB     29.408000   32.338000   26.460000 C     3 ALA    -0.1825 ****
 22 HB1    30.189000   31.735000   26.927000 H     3 ALA     0.0603 ****
 23 HB2    29.451000   33.348000   26.869000 H     3 ALA     0.0603 ****
 24 HB3    28.435000   31.902000   26.691000 H     3 ALA     0.0603 ****
 25 C      30.947000   33.088000   24.552000 C     3 ALA     0.5973 ****
 26 O      31.827000   33.319000   25.381000 O     3 ALA    -0.5679 ****
 27 N      31.048000   33.511000   23.288000 N     4 ALA    -0.4157 ****
 28 H      30.297000   33.314000   22.651000 H     4 ALA     0.2719 ****
 29 CA     32.203000   34.241000   22.770000 C     4 ALA     0.0337 ****
 30 HA     33.112000   33.782000   23.164000 H     4 ALA     0.0823 ****
 31 CB     32.226000   34.085000   21.243000 C     4 ALA    -0.1825 ****
 32 HB1    31.321000   34.511000   20.807000 H     4 ALA     0.0603 ****
 33 HB2    33.093000   34.608000   20.837000 H     4 ALA     0.0603 ****
 34 HB3    32.295000   33.029000   20.979000 H     4 ALA     0.0603 ****
 35 C      32.182000   35.717000   23.221000 C     4 ALA     0.5973 ****
 36 O      31.552000   36.559000   22.583000 O     4 ALA    -0.5679 ****
 37 N      32.867000   36.024000   24.329000 N     5 NME    -0.4157 ****
 38 H      33.287000   35.261000   24.842000 H     5 NME     0.2719 ****
 39 CH3    32.956000   37.368000   24.897000 C     5 NME    -0.1490 ****
 40 HH31   31.956000   37.728000   25.145000 H     5 NME     0.0976 ****
 41 HH32   33.567000   37.354000   25.800000 H     5 NME     0.0976 ****
 42 HH33   33.401000   38.047000   24.168000 H     5 NME     0.0976 ****
@<TRIPOS>BOND
    1     5     6 1
    2     5     7 1
    3     2     3 1
    4     2     4 1
    5     2     5 1
    6     1     2 1
    7    15    16 1
    8    15    17 1
    9    11    12 1
   10    11    13 1
   11    11    14 1
   12     9    10 1
   13     9    11 1
   14     9    15 1
   15     7     8 1
   16     7     9 1
   17    25    26 1
   18    25    27 1
   19    21    22 1
   20    21    23 1
   21    21    24 1
   22    19    20 1
   23    19    21 1
   24    19    25 1
   25    17    18 1
   26    17    19 1
   27    35    36 1
   28    35    37 1
   29    31    32 1
   30    31    33 1
   31    31    34 1
   32    29    30 1
   33    29    31 1
   34    29    35 1
   35    27    28 1
   36    27    29 1
   37    39    40 1
   38    39    41 1
   39    39    42 1
   40    37    38 1
   41    37    39 1
@<TRIPOS>SUBSTRUCTURE
      1  ACE              1 ****               0 ****  **** 
      2  ALA              7 ****               0 ****  **** 
      3  ALA             17 ****               0 ****  **** 
      4  ALA             27 ****               0 ****  **** 
      5  NME             37 ****               0 ****  **** 
