@<TRIPOS>MOLECULE
default_name
   42    41     5     0     1 
SMALL
USER_CHARGES
@<TRIPOS>ATOM
  1 H1     30.234000   25.522000   23.910000 H     1 ACE     0.1123 ****
  2 CH3    29.999000   26.436000   24.455000 C     1 ACE    -0.3662 ****
  3 H2     30.912000   26.860000   24.869000 H     1 ACE     0.1123 ****
  4 H3     29.297000   26.213000   25.256000 H     1 ACE     0.1123 ****
  5 C      29.373000   27.427000   23.503000 C     1 ACE     0.5972 ****
  6 O      29.208000   27.131000   22.327000 O     1 ACE    -0.5679 ****
  7 N      29.033000   28.609000   24.011000 N     2 ALA    -0.4157 ****
  8 H      29.233000   28.796000   24.982000 H     2 ALA     0.2719 ****
  9 CA     28.426000   29.698000   23.246000 C     2 ALA     0.0337 ****
 10 HA     28.783000   29.646000   22.216000 H     2 ALA     0.0823 ****
 11 CB     26.901000   29.512000   23.239000 C     2 ALA    -0.1825 ****
 12 HB1    26.517000   29.556000   24.260000 H     2 ALA     0.0603 ****
 13 HB2    26.431000   30.296000   22.646000 H     2 ALA     0.0603 ****
 14 HB3    26.650000   28.544000   22.803000 H     2 ALA     0.0603 ****
 15 C      28.827000   31.069000   23.819000 C     2 ALA     0.5973 ****
 16 O      29.230000   31.164000   24.975000 O     2 ALA    -0.5679 ****
 17 N      28.709000   32.122000   23.000000 N     3 ALA    -0.4157 ****
 18 H      28.350000   31.946000   22.075000 H     3 ALA     0.2719 ****
 19 CA     28.956000   33.528000   23.360000 C     3 ALA     0.0337 ****
 20 HA     29.049000   34.085000   22.427000 H     3 ALA     0.0823 ****
 21 CB     27.712000   34.072000   24.082000 C     3 ALA    -0.1825 ****
 22 HB1    27.592000   33.568000   25.043000 H     3 ALA     0.0603 ****
 23 HB2    27.829000   35.142000   24.260000 H     3 ALA     0.0603 ****
 24 HB3    26.822000   33.910000   23.474000 H     3 ALA     0.0603 ****
 25 C      30.280000   33.779000   24.126000 C     3 ALA     0.5973 ****
 26 O      30.328000   34.540000   25.092000 O     3 ALA    -0.5679 ****
 27 N      31.377000   33.174000   23.659000 N     4 ALA    -0.4157 ****
 28 H      31.290000   32.567000   22.862000 H     4 ALA     0.2719 ****
 29 CA     32.708000   33.344000   24.238000 C     4 ALA     0.0337 ****
 30 HA     32.622000   33.316000   25.326000 H     4 ALA     0.0823 ****
 31 CB     33.574000   32.152000   23.807000 C     4 ALA    -0.1825 ****
 32 HB1    33.669000   32.128000   22.720000 H     4 ALA     0.0603 ****
 33 HB2    34.569000   32.248000   24.244000 H     4 ALA     0.0603 ****
 34 HB3    33.123000   31.221000   24.153000 H     4 ALA     0.0603 ****
 35 C      33.321000   34.705000   23.844000 C     4 ALA     0.5973 ****
 36 O      33.928000   34.836000   22.782000 O     4 ALA    -0.5679 ****
 37 N      33.149000   35.719000   24.700000 N     5 NME    -0.4157 ****
 38 H      32.565000   35.551000   25.507000 H     5 NME     0.2719 ****
 39 CH3    33.664000   37.070000   24.489000 C     5 NME    -0.1490 ****
 40 HH31   33.249000   37.481000   23.566000 H     5 NME     0.0976 ****
 41 HH32   33.387000   37.713000   25.325000 H     5 NME     0.0976 ****
 42 HH33   34.751000   37.041000   24.400000 H     5 NME     0.0976 ****
@<TRIPOS>BOND
    1     5     6 1
    2     5     7 1
    3     2     3 1
    4     2     4 1
    5     2     5 1
    6     1     2 1
    7    15    16 1
    8    15    17 1
    9    11    12 1
   10    11    13 1
   11    11    14 1
   12     9    10 1
   13     9    11 1
   14     9    15 1
   15     7     8 1
   16     7     9 1
   17    25    26 1
   18    25    27 1
   19    21    22 1
   20    21    23 1
   21    21    24 1
   22    19    20 1
   23    19    21 1
   24    19    25 1
   25    17    18 1
   26    17    19 1
   27    35    36 1
   28    35    37 1
   29    31    32 1
   30    31    33 1
   31    31    34 1
   32    29    30 1
   33    29    31 1
   34    29    35 1
   35    27    28 1
   36    27    29 1
   37    39    40 1
   38    39    41 1
   39    39    42 1
   40    37    38 1
   41    37    39 1
@<TRIPOS>SUBSTRUCTURE
      1  ACE              1 ****               0 ****  **** 
      2  ALA              7 ****               0 ****  **** 
      3  ALA             17 ****               0 ****  **** 
      4  ALA             27 ****               0 ****  **** 
      5  NME             37 ****               0 ****  **** 
