@<TRIPOS>MOLECULE
default_name
   42    41     5     0     1 
SMALL
USER_CHARGES
@<TRIPOS>ATOM
  1 H1     29.235000   28.191000   26.043000 H     1 ACE     0.1123 ****
  2 CH3    29.829000   27.686000   25.283000 C     1 ACE    -0.3662 ****
  3 H2     29.483000   26.662000   25.155000 H     1 ACE     0.1123 ****
  4 H3     30.876000   27.681000   25.586000 H     1 ACE     0.1123 ****
  5 C      29.704000   28.426000   23.973000 C     1 ACE     0.5972 ****
  6 O      30.692000   28.919000   23.447000 O     1 ACE    -0.5679 ****
  7 N      28.481000   28.528000   23.456000 N     2 ALA    -0.4157 ****
  8 H      27.720000   28.099000   23.955000 H     2 ALA     0.2719 ****
  9 CA     28.172000   29.167000   22.168000 C     2 ALA     0.0337 ****
 10 HA     28.878000   28.785000   21.428000 H     2 ALA     0.0823 ****
 11 CB     26.764000   28.719000   21.751000 C     2 ALA    -0.1825 ****
 12 HB1    26.025000   29.106000   22.454000 H     2 ALA     0.0603 ****
 13 HB2    26.537000   29.104000   20.755000 H     2 ALA     0.0603 ****
 14 HB3    26.709000   27.631000   21.723000 H     2 ALA     0.0603 ****
 15 C      28.315000   30.711000   22.144000 C     2 ALA     0.5973 ****
 16 O      27.987000   31.342000   21.142000 O     2 ALA    -0.5679 ****
 17 N      28.782000   31.325000   23.234000 N     3 ALA    -0.4157 ****
 18 H      29.084000   30.747000   24.004000 H     3 ALA     0.2719 ****
 19 CA     28.990000   32.763000   23.378000 C     3 ALA     0.0337 ****
 20 HA     29.292000   33.177000   22.414000 H     3 ALA     0.0823 ****
 21 CB     27.672000   33.427000   23.800000 C     3 ALA    -0.1825 ****
 22 HB1    27.334000   33.017000   24.752000 H     3 ALA     0.0603 ****
 23 HB2    27.822000   34.502000   23.908000 H     3 ALA     0.0603 ****
 24 HB3    26.909000   33.252000   23.040000 H     3 ALA     0.0603 ****
 25 C      30.114000   33.019000   24.396000 C     3 ALA     0.5973 ****
 26 O      30.010000   32.609000   25.552000 O     3 ALA    -0.5679 ****
 27 N      31.198000   33.664000   23.961000 N     4 ALA    -0.4157 ****
 28 H      31.221000   33.997000   23.008000 H     4 ALA     0.2719 ****
 29 CA     32.380000   33.951000   24.775000 C     4 ALA     0.0337 ****
 30 HA     32.068000   34.116000   25.808000 H     4 ALA     0.0823 ****
 31 CB     33.312000   32.731000   24.735000 C     4 ALA    -0.1825 ****
 32 HB1    33.639000   32.546000   23.710000 H     4 ALA     0.0603 ****
 33 HB2    34.186000   32.907000   25.362000 H     4 ALA     0.0603 ****
 34 HB3    32.786000   31.850000   25.105000 H     4 ALA     0.0603 ****
 35 C      33.093000   35.227000   24.287000 C     4 ALA     0.5973 ****
 36 O      32.878000   35.669000   23.159000 O     4 ALA    -0.5679 ****
 37 N      33.950000   35.809000   25.136000 N     5 NME    -0.4157 ****
 38 H      34.080000   35.383000   26.040000 H     5 NME     0.2719 ****
 39 CH3    34.712000   37.017000   24.826000 C     5 NME    -0.1490 ****
 40 HH31   34.027000   37.837000   24.600000 H     5 NME     0.0976 ****
 41 HH32   35.340000   37.297000   25.673000 H     5 NME     0.0976 ****
 42 HH33   35.342000   36.841000   23.952000 H     5 NME     0.0976 ****
@<TRIPOS>BOND
    1     5     6 1
    2     5     7 1
    3     2     3 1
    4     2     4 1
    5     2     5 1
    6     1     2 1
    7    15    16 1
    8    15    17 1
    9    11    12 1
   10    11    13 1
   11    11    14 1
   12     9    10 1
   13     9    11 1
   14     9    15 1
   15     7     8 1
   16     7     9 1
   17    25    26 1
   18    25    27 1
   19    21    22 1
   20    21    23 1
   21    21    24 1
   22    19    20 1
   23    19    21 1
   24    19    25 1
   25    17    18 1
   26    17    19 1
   27    35    36 1
   28    35    37 1
   29    31    32 1
   30    31    33 1
   31    31    34 1
   32    29    30 1
   33    29    31 1
   34    29    35 1
   35    27    28 1
   36    27    29 1
   37    39    40 1
   38    39    41 1
   39    39    42 1
   40    37    38 1
   41    37    39 1
@<TRIPOS>SUBSTRUCTURE
      1  ACE              1 ****               0 ****  **** 
      2  ALA              7 ****               0 ****  **** 
      3  ALA             17 ****               0 ****  **** 
      4  ALA             27 ****               0 ****  **** 
      5  NME             37 ****               0 ****  **** 
