@<TRIPOS>MOLECULE
default_name
   42    41     5     0     1 
SMALL
USER_CHARGES
@<TRIPOS>ATOM
  1 H1     25.254000   28.638000   24.321000 H     1 ACE     0.1123 ****
  2 CH3    25.799000   28.969000   23.438000 C     1 ACE    -0.3662 ****
  3 H2     25.413000   29.935000   23.114000 H     1 ACE     0.1123 ****
  4 H3     25.683000   28.236000   22.642000 H     1 ACE     0.1123 ****
  5 C      27.261000   29.106000   23.787000 C     1 ACE     0.5972 ****
  6 O      27.653000   28.855000   24.920000 O     1 ACE    -0.5679 ****
  7 N      28.078000   29.504000   22.814000 N     2 ALA    -0.4157 ****
  8 H      27.684000   29.712000   21.911000 H     2 ALA     0.2719 ****
  9 CA     29.508000   29.740000   23.007000 C     2 ALA     0.0337 ****
 10 HA     29.919000   28.925000   23.607000 H     2 ALA     0.0823 ****
 11 CB     30.195000   29.702000   21.634000 C     2 ALA    -0.1825 ****
 12 HB1    29.795000   30.488000   20.991000 H     2 ALA     0.0603 ****
 13 HB2    31.267000   29.858000   21.757000 H     2 ALA     0.0603 ****
 14 HB3    30.030000   28.733000   21.163000 H     2 ALA     0.0603 ****
 15 C      29.761000   31.062000   23.763000 C     2 ALA     0.5973 ****
 16 O      29.807000   32.126000   23.153000 O     2 ALA    -0.5679 ****
 17 N      29.900000   30.984000   25.092000 N     3 ALA    -0.4157 ****
 18 H      29.736000   30.075000   25.500000 H     3 ALA     0.2719 ****
 19 CA     30.234000   32.054000   26.049000 C     3 ALA     0.0337 ****
 20 HA     29.293000   32.531000   26.330000 H     3 ALA     0.0823 ****
 21 CB     30.795000   31.378000   27.307000 C     3 ALA    -0.1825 ****
 22 HB1    31.738000   30.879000   27.076000 H     3 ALA     0.0603 ****
 23 HB2    30.971000   32.131000   28.077000 H     3 ALA     0.0603 ****
 24 HB3    30.081000   30.648000   27.690000 H     3 ALA     0.0603 ****
 25 C      31.163000   33.208000   25.593000 C     3 ALA     0.5973 ****
 26 O      31.060000   34.307000   26.128000 O     3 ALA    -0.5679 ****
 27 N      32.074000   32.981000   24.641000 N     4 ALA    -0.4157 ****
 28 H      32.073000   32.079000   24.197000 H     4 ALA     0.2719 ****
 29 CA     33.065000   33.960000   24.175000 C     4 ALA     0.0337 ****
 30 HA     33.496000   34.446000   25.052000 H     4 ALA     0.0823 ****
 31 CB     34.184000   33.181000   23.468000 C     4 ALA    -0.1825 ****
 32 HB1    33.795000   32.701000   22.569000 H     4 ALA     0.0603 ****
 33 HB2    34.984000   33.867000   23.184000 H     4 ALA     0.0603 ****
 34 HB3    34.595000   32.425000   24.139000 H     4 ALA     0.0603 ****
 35 C      32.509000   35.098000   23.281000 C     4 ALA     0.5973 ****
 36 O      33.284000   35.921000   22.797000 O     4 ALA    -0.5679 ****
 37 N      31.193000   35.146000   23.035000 N     5 NME    -0.4157 ****
 38 H      30.614000   34.449000   23.478000 H     5 NME     0.2719 ****
 39 CH3    30.542000   36.157000   22.206000 C     5 NME    -0.1490 ****
 40 HH31   31.013000   36.186000   21.222000 H     5 NME     0.0976 ****
 41 HH32   29.483000   35.922000   22.093000 H     5 NME     0.0976 ****
 42 HH33   30.647000   37.137000   22.675000 H     5 NME     0.0976 ****
@<TRIPOS>BOND
    1     5     6 1
    2     5     7 1
    3     2     3 1
    4     2     4 1
    5     2     5 1
    6     1     2 1
    7    15    16 1
    8    15    17 1
    9    11    12 1
   10    11    13 1
   11    11    14 1
   12     9    10 1
   13     9    11 1
   14     9    15 1
   15     7     8 1
   16     7     9 1
   17    25    26 1
   18    25    27 1
   19    21    22 1
   20    21    23 1
   21    21    24 1
   22    19    20 1
   23    19    21 1
   24    19    25 1
   25    17    18 1
   26    17    19 1
   27    35    36 1
   28    35    37 1
   29    31    32 1
   30    31    33 1
   31    31    34 1
   32    29    30 1
   33    29    31 1
   34    29    35 1
   35    27    28 1
   36    27    29 1
   37    39    40 1
   38    39    41 1
   39    39    42 1
   40    37    38 1
   41    37    39 1
@<TRIPOS>SUBSTRUCTURE
      1  ACE              1 ****               0 ****  **** 
      2  ALA              7 ****               0 ****  **** 
      3  ALA             17 ****               0 ****  **** 
      4  ALA             27 ****               0 ****  **** 
      5  NME             37 ****               0 ****  **** 
