@<TRIPOS>MOLECULE
default_name
   42    41     5     0     1 
SMALL
USER_CHARGES
@<TRIPOS>ATOM
  1 H1     25.446000   27.842000   24.819000 H     1 ACE     0.1123 ****
  2 CH3    26.015000   27.882000   23.890000 C     1 ACE    -0.3662 ****
  3 H2     25.553000   28.595000   23.211000 H     1 ACE     0.1123 ****
  4 H3     26.037000   26.894000   23.434000 H     1 ACE     0.1123 ****
  5 C      27.425000   28.325000   24.199000 C     1 ACE     0.5972 ****
  6 O      27.757000   28.574000   25.351000 O     1 ACE    -0.5679 ****
  7 N      28.261000   28.425000   23.167000 N     2 ALA    -0.4157 ****
  8 H      27.911000   28.228000   22.244000 H     2 ALA     0.2719 ****
  9 CA     29.637000   28.907000   23.283000 C     2 ALA     0.0337 ****
 10 HA     30.086000   28.476000   24.179000 H     2 ALA     0.0823 ****
 11 CB     30.430000   28.397000   22.071000 C     2 ALA    -0.1825 ****
 12 HB1    29.999000   28.786000   21.147000 H     2 ALA     0.0603 ****
 13 HB2    31.465000   28.734000   22.144000 H     2 ALA     0.0603 ****
 14 HB3    30.414000   27.307000   22.047000 H     2 ALA     0.0603 ****
 15 C      29.678000   30.445000   23.423000 C     2 ALA     0.5973 ****
 16 O      29.716000   31.157000   22.425000 O     2 ALA    -0.5679 ****
 17 N      29.668000   30.936000   24.667000 N     3 ALA    -0.4157 ****
 18 H      29.567000   30.268000   25.416000 H     3 ALA     0.2719 ****
 19 CA     29.650000   32.352000   25.053000 C     3 ALA     0.0337 ****
 20 HA     28.647000   32.725000   24.839000 H     3 ALA     0.0823 ****
 21 CB     29.853000   32.457000   26.572000 C     3 ALA    -0.1825 ****
 22 HB1    30.820000   32.044000   26.860000 H     3 ALA     0.0603 ****
 23 HB2    29.805000   33.504000   26.875000 H     3 ALA     0.0603 ****
 24 HB3    29.063000   31.908000   27.087000 H     3 ALA     0.0603 ****
 25 C      30.605000   33.261000   24.247000 C     3 ALA     0.5973 ****
 26 O      30.151000   34.093000   23.467000 O     3 ALA    -0.5679 ****
 27 N      31.914000   33.151000   24.510000 N     4 ALA    -0.4157 ****
 28 H      32.182000   32.461000   25.190000 H     4 ALA     0.2719 ****
 29 CA     32.989000   33.975000   23.945000 C     4 ALA     0.0337 ****
 30 HA     33.904000   33.669000   24.454000 H     4 ALA     0.0823 ****
 31 CB     33.205000   33.631000   22.462000 C     4 ALA    -0.1825 ****
 32 HB1    32.317000   33.878000   21.878000 H     4 ALA     0.0603 ****
 33 HB2    34.056000   34.193000   22.075000 H     4 ALA     0.0603 ****
 34 HB3    33.407000   32.565000   22.356000 H     4 ALA     0.0603 ****
 35 C      32.865000   35.483000   24.259000 C     4 ALA     0.5973 ****
 36 O      33.405000   35.928000   25.269000 O     4 ALA    -0.5679 ****
 37 N      32.185000   36.266000   23.411000 N     5 NME    -0.4157 ****
 38 H      31.724000   35.816000   22.634000 H     5 NME     0.2719 ****
 39 CH3    31.990000   37.703000   23.591000 C     5 NME    -0.1490 ****
 40 HH31   31.409000   38.109000   22.762000 H     5 NME     0.0976 ****
 41 HH32   31.458000   37.885000   24.526000 H     5 NME     0.0976 ****
 42 HH33   32.959000   38.204000   23.636000 H     5 NME     0.0976 ****
@<TRIPOS>BOND
    1     5     6 1
    2     5     7 1
    3     2     3 1
    4     2     4 1
    5     2     5 1
    6     1     2 1
    7    15    16 1
    8    15    17 1
    9    11    12 1
   10    11    13 1
   11    11    14 1
   12     9    10 1
   13     9    11 1
   14     9    15 1
   15     7     8 1
   16     7     9 1
   17    25    26 1
   18    25    27 1
   19    21    22 1
   20    21    23 1
   21    21    24 1
   22    19    20 1
   23    19    21 1
   24    19    25 1
   25    17    18 1
   26    17    19 1
   27    35    36 1
   28    35    37 1
   29    31    32 1
   30    31    33 1
   31    31    34 1
   32    29    30 1
   33    29    31 1
   34    29    35 1
   35    27    28 1
   36    27    29 1
   37    39    40 1
   38    39    41 1
   39    39    42 1
   40    37    38 1
   41    37    39 1
@<TRIPOS>SUBSTRUCTURE
      1  ACE              1 ****               0 ****  **** 
      2  ALA              7 ****               0 ****  **** 
      3  ALA             17 ****               0 ****  **** 
      4  ALA             27 ****               0 ****  **** 
      5  NME             37 ****               0 ****  **** 
