@<TRIPOS>MOLECULE
default_name
   42    41     5     0     1 
SMALL
USER_CHARGES
@<TRIPOS>ATOM
  1 H1     25.960000   25.184000   23.725000 H     1 ACE     0.1123 ****
  2 CH3    26.157000   26.162000   23.287000 C     1 ACE    -0.3662 ****
  3 H2     25.310000   26.821000   23.467000 H     1 ACE     0.1123 ****
  4 H3     26.325000   26.056000   22.217000 H     1 ACE     0.1123 ****
  5 C      27.392000   26.747000   23.931000 C     1 ACE     0.5972 ****
  6 O      27.989000   26.121000   24.797000 O     1 ACE    -0.5679 ****
  7 N      27.767000   27.952000   23.509000 N     2 ALA    -0.4157 ****
  8 H      27.203000   28.422000   22.817000 H     2 ALA     0.2719 ****
  9 CA     28.921000   28.692000   24.019000 C     2 ALA     0.0337 ****
 10 HA     29.060000   28.448000   25.073000 H     2 ALA     0.0823 ****
 11 CB     30.175000   28.252000   23.248000 C     2 ALA    -0.1825 ****
 12 HB1    30.059000   28.481000   22.187000 H     2 ALA     0.0603 ****
 13 HB2    31.051000   28.777000   23.629000 H     2 ALA     0.0603 ****
 14 HB3    30.328000   27.179000   23.370000 H     2 ALA     0.0603 ****
 15 C      28.699000   30.211000   23.908000 C     2 ALA     0.5973 ****
 16 O      27.851000   30.665000   23.140000 O     2 ALA    -0.5679 ****
 17 N      29.471000   30.990000   24.672000 N     3 ALA    -0.4157 ****
 18 H      30.175000   30.545000   25.236000 H     3 ALA     0.2719 ****
 19 CA     29.528000   32.450000   24.556000 C     3 ALA     0.0337 ****
 20 HA     28.670000   32.813000   23.988000 H     3 ALA     0.0823 ****
 21 CB     29.428000   33.019000   25.982000 C     3 ALA    -0.1825 ****
 22 HB1    30.305000   32.730000   26.564000 H     3 ALA     0.0603 ****
 23 HB2    29.359000   34.106000   25.953000 H     3 ALA     0.0603 ****
 24 HB3    28.531000   32.633000   26.470000 H     3 ALA     0.0603 ****
 25 C      30.804000   32.905000   23.808000 C     3 ALA     0.5973 ****
 26 O      31.506000   32.093000   23.206000 O     3 ALA    -0.5679 ****
 27 N      31.142000   34.194000   23.894000 N     4 ALA    -0.4157 ****
 28 H      30.567000   34.812000   24.448000 H     4 ALA     0.2719 ****
 29 CA     32.336000   34.793000   23.296000 C     4 ALA     0.0337 ****
 30 HA     33.143000   34.058000   23.301000 H     4 ALA     0.0823 ****
 31 CB     32.025000   35.167000   21.839000 C     4 ALA    -0.1825 ****
 32 HB1    31.219000   35.902000   21.807000 H     4 ALA     0.0603 ****
 33 HB2    32.912000   35.588000   21.364000 H     4 ALA     0.0603 ****
 34 HB3    31.722000   34.277000   21.285000 H     4 ALA     0.0603 ****
 35 C      32.801000   36.015000   24.110000 C     4 ALA     0.5973 ****
 36 O      32.033000   36.565000   24.899000 O     4 ALA    -0.5679 ****
 37 N      34.055000   36.441000   23.911000 N     5 NME    -0.4157 ****
 38 H      34.622000   35.943000   23.243000 H     5 NME     0.2719 ****
 39 CH3    34.647000   37.588000   24.597000 C     5 NME    -0.1490 ****
 40 HH31   34.636000   37.418000   25.676000 H     5 NME     0.0976 ****
 41 HH32   35.676000   37.739000   24.267000 H     5 NME     0.0976 ****
 42 HH33   34.065000   38.487000   24.383000 H     5 NME     0.0976 ****
@<TRIPOS>BOND
    1     5     6 1
    2     5     7 1
    3     2     3 1
    4     2     4 1
    5     2     5 1
    6     1     2 1
    7    15    16 1
    8    15    17 1
    9    11    12 1
   10    11    13 1
   11    11    14 1
   12     9    10 1
   13     9    11 1
   14     9    15 1
   15     7     8 1
   16     7     9 1
   17    25    26 1
   18    25    27 1
   19    21    22 1
   20    21    23 1
   21    21    24 1
   22    19    20 1
   23    19    21 1
   24    19    25 1
   25    17    18 1
   26    17    19 1
   27    35    36 1
   28    35    37 1
   29    31    32 1
   30    31    33 1
   31    31    34 1
   32    29    30 1
   33    29    31 1
   34    29    35 1
   35    27    28 1
   36    27    29 1
   37    39    40 1
   38    39    41 1
   39    39    42 1
   40    37    38 1
   41    37    39 1
@<TRIPOS>SUBSTRUCTURE
      1  ACE              1 ****               0 ****  **** 
      2  ALA              7 ****               0 ****  **** 
      3  ALA             17 ****               0 ****  **** 
      4  ALA             27 ****               0 ****  **** 
      5  NME             37 ****               0 ****  **** 
