@<TRIPOS>MOLECULE
default_name
   42    41     5     0     1 
SMALL
USER_CHARGES
@<TRIPOS>ATOM
  1 H1     26.239000   29.122000   21.921000 H     1 ACE     0.1123 ****
  2 CH3    26.870000   30.002000   22.030000 C     1 ACE    -0.3662 ****
  3 H2     26.255000   30.887000   22.191000 H     1 ACE     0.1123 ****
  4 H3     27.494000   30.149000   21.150000 H     1 ACE     0.1123 ****
  5 C      27.715000   29.817000   23.255000 C     1 ACE     0.5972 ****
  6 O      27.570000   30.583000   24.191000 O     1 ACE    -0.5679 ****
  7 N      28.583000   28.802000   23.255000 N     2 ALA    -0.4157 ****
  8 H      28.589000   28.195000   22.450000 H     2 ALA     0.2719 ****
  9 CA     29.293000   28.311000   24.452000 C     2 ALA     0.0337 ****
 10 HA     28.549000   27.858000   25.111000 H     2 ALA     0.0823 ****
 11 CB     30.252000   27.188000   24.018000 C     2 ALA    -0.1825 ****
 12 HB1    30.954000   27.580000   23.285000 H     2 ALA     0.0603 ****
 13 HB2    30.808000   26.806000   24.879000 H     2 ALA     0.0603 ****
 14 HB3    29.699000   26.357000   23.578000 H     2 ALA     0.0603 ****
 15 C      30.033000   29.375000   25.310000 C     2 ALA     0.5973 ****
 16 O      30.280000   29.095000   26.479000 O     2 ALA    -0.5679 ****
 17 N      30.343000   30.560000   24.750000 N     3 ALA    -0.4157 ****
 18 H      30.074000   30.618000   23.779000 H     3 ALA     0.2719 ****
 19 CA     30.295000   31.859000   25.460000 C     3 ALA     0.0337 ****
 20 HA     29.268000   32.045000   25.768000 H     3 ALA     0.0823 ****
 21 CB     31.179000   31.860000   26.724000 C     3 ALA    -0.1825 ****
 22 HB1    32.138000   31.375000   26.533000 H     3 ALA     0.0603 ****
 23 HB2    31.351000   32.879000   27.072000 H     3 ALA     0.0603 ****
 24 HB3    30.659000   31.337000   27.525000 H     3 ALA     0.0603 ****
 25 C      30.704000   33.048000   24.564000 C     3 ALA     0.5973 ****
 26 O      29.871000   33.907000   24.299000 O     3 ALA    -0.5679 ****
 27 N      31.939000   33.047000   24.043000 N     4 ALA    -0.4157 ****
 28 H      32.512000   32.263000   24.307000 H     4 ALA     0.2719 ****
 29 CA     32.600000   34.116000   23.269000 C     4 ALA     0.0337 ****
 30 HA     33.667000   33.980000   23.442000 H     4 ALA     0.0823 ****
 31 CB     32.392000   33.898000   21.761000 C     4 ALA    -0.1825 ****
 32 HB1    31.336000   33.996000   21.506000 H     4 ALA     0.0603 ****
 33 HB2    32.961000   34.646000   21.201000 H     4 ALA     0.0603 ****
 34 HB3    32.743000   32.906000   21.466000 H     4 ALA     0.0603 ****
 35 C      32.328000   35.581000   23.707000 C     4 ALA     0.5973 ****
 36 O      33.144000   36.158000   24.419000 O     4 ALA    -0.5679 ****
 37 N      31.233000   36.194000   23.231000 N     5 NME    -0.4157 ****
 38 H      30.601000   35.630000   22.686000 H     5 NME     0.2719 ****
 39 CH3    30.853000   37.588000   23.459000 C     5 NME    -0.1490 ****
 40 HH31   30.018000   37.849000   22.805000 H     5 NME     0.0976 ****
 41 HH32   30.537000   37.722000   24.495000 H     5 NME     0.0976 ****
 42 HH33   31.694000   38.254000   23.251000 H     5 NME     0.0976 ****
@<TRIPOS>BOND
    1     5     6 1
    2     5     7 1
    3     2     3 1
    4     2     4 1
    5     2     5 1
    6     1     2 1
    7    15    16 1
    8    15    17 1
    9    11    12 1
   10    11    13 1
   11    11    14 1
   12     9    10 1
   13     9    11 1
   14     9    15 1
   15     7     8 1
   16     7     9 1
   17    25    26 1
   18    25    27 1
   19    21    22 1
   20    21    23 1
   21    21    24 1
   22    19    20 1
   23    19    21 1
   24    19    25 1
   25    17    18 1
   26    17    19 1
   27    35    36 1
   28    35    37 1
   29    31    32 1
   30    31    33 1
   31    31    34 1
   32    29    30 1
   33    29    31 1
   34    29    35 1
   35    27    28 1
   36    27    29 1
   37    39    40 1
   38    39    41 1
   39    39    42 1
   40    37    38 1
   41    37    39 1
@<TRIPOS>SUBSTRUCTURE
      1  ACE              1 ****               0 ****  **** 
      2  ALA              7 ****               0 ****  **** 
      3  ALA             17 ****               0 ****  **** 
      4  ALA             27 ****               0 ****  **** 
      5  NME             37 ****               0 ****  **** 
