@<TRIPOS>MOLECULE
default_name
   42    41     5     0     1 
SMALL
USER_CHARGES
@<TRIPOS>ATOM
  1 H1     25.853000   26.528000   22.541000 H     1 ACE     0.1123 ****
  2 CH3    26.107000   27.586000   22.507000 C     1 ACE    -0.3662 ****
  3 H2     25.356000   28.160000   23.046000 H     1 ACE     0.1123 ****
  4 H3     26.155000   27.917000   21.471000 H     1 ACE     0.1123 ****
  5 C      27.454000   27.787000   23.159000 C     1 ACE     0.5972 ****
  6 O      28.067000   26.831000   23.616000 O     1 ACE    -0.5679 ****
  7 N      27.913000   29.036000   23.207000 N     2 ALA    -0.4157 ****
  8 H      27.336000   29.779000   22.842000 H     2 ALA     0.2719 ****
  9 CA     29.184000   29.430000   23.814000 C     2 ALA     0.0337 ****
 10 HA     29.391000   28.768000   24.657000 H     2 ALA     0.0823 ****
 11 CB     30.304000   29.262000   22.775000 C     2 ALA    -0.1825 ****
 12 HB1    30.121000   29.915000   21.921000 H     2 ALA     0.0603 ****
 13 HB2    31.268000   29.512000   23.219000 H     2 ALA     0.0603 ****
 14 HB3    30.337000   28.226000   22.433000 H     2 ALA     0.0603 ****
 15 C      29.122000   30.873000   24.346000 C     2 ALA     0.5973 ****
 16 O      28.275000   31.658000   23.928000 O     2 ALA    -0.5679 ****
 17 N      30.053000   31.232000   25.235000 N     3 ALA    -0.4157 ****
 18 H      30.711000   30.532000   25.540000 H     3 ALA     0.2719 ****
 19 CA     30.106000   32.542000   25.901000 C     3 ALA     0.0337 ****
 20 HA     29.168000   33.070000   25.721000 H     3 ALA     0.0823 ****
 21 CB     30.213000   32.298000   27.413000 C     3 ALA    -0.1825 ****
 22 HB1    31.157000   31.806000   27.649000 H     3 ALA     0.0603 ****
 23 HB2    30.170000   33.252000   27.942000 H     3 ALA     0.0603 ****
 24 HB3    29.382000   31.676000   27.750000 H     3 ALA     0.0603 ****
 25 C      31.228000   33.463000   25.366000 C     3 ALA     0.5973 ****
 26 O      31.559000   34.470000   25.989000 O     3 ALA    -0.5679 ****
 27 N      31.840000   33.116000   24.229000 N     4 ALA    -0.4157 ****
 28 H      31.490000   32.314000   23.732000 H     4 ALA     0.2719 ****
 29 CA     32.890000   33.902000   23.582000 C     4 ALA     0.0337 ****
 30 HA     33.538000   34.329000   24.350000 H     4 ALA     0.0823 ****
 31 CB     33.741000   32.950000   22.729000 C     4 ALA    -0.1825 ****
 32 HB1    33.126000   32.482000   21.959000 H     4 ALA     0.0603 ****
 33 HB2    34.542000   33.511000   22.246000 H     4 ALA     0.0603 ****
 34 HB3    34.182000   32.177000   23.360000 H     4 ALA     0.0603 ****
 35 C      32.294000   35.071000   22.768000 C     4 ALA     0.5973 ****
 36 O      32.023000   34.932000   21.577000 O     4 ALA    -0.5679 ****
 37 N      32.080000   36.221000   23.419000 N     5 NME    -0.4157 ****
 38 H      32.278000   36.245000   24.409000 H     5 NME     0.2719 ****
 39 CH3    31.512000   37.419000   22.803000 C     5 NME    -0.1490 ****
 40 HH31   30.521000   37.192000   22.405000 H     5 NME     0.0976 ****
 41 HH32   31.430000   38.219000   23.540000 H     5 NME     0.0976 ****
 42 HH33   32.150000   37.748000   21.980000 H     5 NME     0.0976 ****
@<TRIPOS>BOND
    1     5     6 1
    2     5     7 1
    3     2     3 1
    4     2     4 1
    5     2     5 1
    6     1     2 1
    7    15    16 1
    8    15    17 1
    9    11    12 1
   10    11    13 1
   11    11    14 1
   12     9    10 1
   13     9    11 1
   14     9    15 1
   15     7     8 1
   16     7     9 1
   17    25    26 1
   18    25    27 1
   19    21    22 1
   20    21    23 1
   21    21    24 1
   22    19    20 1
   23    19    21 1
   24    19    25 1
   25    17    18 1
   26    17    19 1
   27    35    36 1
   28    35    37 1
   29    31    32 1
   30    31    33 1
   31    31    34 1
   32    29    30 1
   33    29    31 1
   34    29    35 1
   35    27    28 1
   36    27    29 1
   37    39    40 1
   38    39    41 1
   39    39    42 1
   40    37    38 1
   41    37    39 1
@<TRIPOS>SUBSTRUCTURE
      1  ACE              1 ****               0 ****  **** 
      2  ALA              7 ****               0 ****  **** 
      3  ALA             17 ****               0 ****  **** 
      4  ALA             27 ****               0 ****  **** 
      5  NME             37 ****               0 ****  **** 
