@<TRIPOS>MOLECULE
default_name
   42    41     5     0     1 
SMALL
USER_CHARGES
@<TRIPOS>ATOM
  1 H1     25.882000   26.276000   22.017000 H     1 ACE     0.1123 ****
  2 CH3    26.399000   27.229000   21.914000 C     1 ACE    -0.3662 ****
  3 H2     25.674000   28.040000   21.916000 H     1 ACE     0.1123 ****
  4 H3     26.967000   27.239000   20.986000 H     1 ACE     0.1123 ****
  5 C      27.345000   27.400000   23.080000 C     1 ACE     0.5972 ****
  6 O      27.426000   26.532000   23.938000 O     1 ACE    -0.5679 ****
  7 N      28.054000   28.526000   23.109000 N     2 ALA    -0.4157 ****
  8 H      27.906000   29.212000   22.384000 H     2 ALA     0.2719 ****
  9 CA     29.007000   28.883000   24.160000 C     2 ALA     0.0337 ****
 10 HA     28.661000   28.466000   25.108000 H     2 ALA     0.0823 ****
 11 CB     30.372000   28.266000   23.825000 C     2 ALA    -0.1825 ****
 12 HB1    30.739000   28.664000   22.878000 H     2 ALA     0.0603 ****
 13 HB2    31.091000   28.501000   24.611000 H     2 ALA     0.0603 ****
 14 HB3    30.279000   27.181000   23.748000 H     2 ALA     0.0603 ****
 15 C      29.106000   30.411000   24.322000 C     2 ALA     0.5973 ****
 16 O      28.746000   31.164000   23.416000 O     2 ALA    -0.5679 ****
 17 N      29.613000   30.871000   25.468000 N     3 ALA    -0.4157 ****
 18 H      29.940000   30.208000   26.152000 H     3 ALA     0.2719 ****
 19 CA     29.891000   32.286000   25.707000 C     3 ALA     0.0337 ****
 20 HA     29.064000   32.877000   25.310000 H     3 ALA     0.0823 ****
 21 CB     29.968000   32.530000   27.219000 C     3 ALA    -0.1825 ****
 22 HB1    30.789000   31.954000   27.649000 H     3 ALA     0.0603 ****
 23 HB2    30.141000   33.589000   27.411000 H     3 ALA     0.0603 ****
 24 HB3    29.030000   32.233000   27.691000 H     3 ALA     0.0603 ****
 25 C      31.184000   32.721000   24.991000 C     3 ALA     0.5973 ****
 26 O      32.209000   32.047000   25.090000 O     3 ALA    -0.5679 ****
 27 N      31.140000   33.856000   24.290000 N     4 ALA    -0.4157 ****
 28 H      30.278000   34.380000   24.262000 H     4 ALA     0.2719 ****
 29 CA     32.265000   34.421000   23.545000 C     4 ALA     0.0337 ****
 30 HA     33.194000   34.175000   24.062000 H     4 ALA     0.0823 ****
 31 CB     32.299000   33.783000   22.148000 C     4 ALA    -0.1825 ****
 32 HB1    31.377000   34.013000   21.612000 H     4 ALA     0.0603 ****
 33 HB2    33.148000   34.165000   21.582000 H     4 ALA     0.0603 ****
 34 HB3    32.397000   32.700000   22.240000 H     4 ALA     0.0603 ****
 35 C      32.161000   35.957000   23.466000 C     4 ALA     0.5973 ****
 36 O      31.090000   36.522000   23.688000 O     4 ALA    -0.5679 ****
 37 N      33.273000   36.627000   23.141000 N     5 NME    -0.4157 ****
 38 H      34.111000   36.094000   22.967000 H     5 NME     0.2719 ****
 39 CH3    33.344000   38.082000   23.016000 C     5 NME    -0.1490 ****
 40 HH31   33.071000   38.546000   23.966000 H     5 NME     0.0976 ****
 41 HH32   34.353000   38.391000   22.741000 H     5 NME     0.0976 ****
 42 HH33   32.642000   38.420000   22.251000 H     5 NME     0.0976 ****
@<TRIPOS>BOND
    1     5     6 1
    2     5     7 1
    3     2     3 1
    4     2     4 1
    5     2     5 1
    6     1     2 1
    7    15    16 1
    8    15    17 1
    9    11    12 1
   10    11    13 1
   11    11    14 1
   12     9    10 1
   13     9    11 1
   14     9    15 1
   15     7     8 1
   16     7     9 1
   17    25    26 1
   18    25    27 1
   19    21    22 1
   20    21    23 1
   21    21    24 1
   22    19    20 1
   23    19    21 1
   24    19    25 1
   25    17    18 1
   26    17    19 1
   27    35    36 1
   28    35    37 1
   29    31    32 1
   30    31    33 1
   31    31    34 1
   32    29    30 1
   33    29    31 1
   34    29    35 1
   35    27    28 1
   36    27    29 1
   37    39    40 1
   38    39    41 1
   39    39    42 1
   40    37    38 1
   41    37    39 1
@<TRIPOS>SUBSTRUCTURE
      1  ACE              1 ****               0 ****  **** 
      2  ALA              7 ****               0 ****  **** 
      3  ALA             17 ****               0 ****  **** 
      4  ALA             27 ****               0 ****  **** 
      5  NME             37 ****               0 ****  **** 
