@<TRIPOS>MOLECULE
default_name
   42    41     5     0     1 
SMALL
USER_CHARGES
@<TRIPOS>ATOM
  1 H1     28.002000   31.510000   21.054000 H     1 ACE     0.1123 ****
  2 CH3    28.458000   30.527000   21.167000 C     1 ACE    -0.3662 ****
  3 H2     29.499000   30.568000   20.850000 H     1 ACE     0.1123 ****
  4 H3     27.914000   29.800000   20.567000 H     1 ACE     0.1123 ****
  5 C      28.402000   30.124000   22.621000 C     1 ACE     0.5972 ****
  6 O      27.930000   30.890000   23.454000 O     1 ACE    -0.5679 ****
  7 N      28.883000   28.920000   22.926000 N     2 ALA    -0.4157 ****
  8 H      29.289000   28.369000   22.188000 H     2 ALA     0.2719 ****
  9 CA     29.047000   28.436000   24.296000 C     2 ALA     0.0337 ****
 10 HA     28.139000   28.656000   24.861000 H     2 ALA     0.0823 ****
 11 CB     29.223000   26.911000   24.256000 C     2 ALA    -0.1825 ****
 12 HB1    30.110000   26.650000   23.676000 H     2 ALA     0.0603 ****
 13 HB2    29.344000   26.532000   25.272000 H     2 ALA     0.0603 ****
 14 HB3    28.346000   26.446000   23.806000 H     2 ALA     0.0603 ****
 15 C      30.226000   29.164000   24.972000 C     2 ALA     0.5973 ****
 16 O      31.370000   28.735000   24.851000 O     2 ALA    -0.5679 ****
 17 N      29.915000   30.273000   25.657000 N     3 ALA    -0.4157 ****
 18 H      28.932000   30.494000   25.693000 H     3 ALA     0.2719 ****
 19 CA     30.817000   31.397000   25.931000 C     3 ALA     0.0337 ****
 20 HA     30.224000   32.114000   26.500000 H     3 ALA     0.0823 ****
 21 CB     31.973000   30.994000   26.860000 C     3 ALA    -0.1825 ****
 22 HB1    32.671000   30.344000   26.332000 H     3 ALA     0.0603 ****
 23 HB2    32.509000   31.887000   27.183000 H     3 ALA     0.0603 ****
 24 HB3    31.585000   30.472000   27.735000 H     3 ALA     0.0603 ****
 25 C      31.262000   32.133000   24.646000 C     3 ALA     0.5973 ****
 26 O      31.882000   31.565000   23.750000 O     3 ALA    -0.5679 ****
 27 N      30.922000   33.421000   24.549000 N     4 ALA    -0.4157 ****
 28 H      30.436000   33.860000   25.317000 H     4 ALA     0.2719 ****
 29 CA     31.222000   34.279000   23.404000 C     4 ALA     0.0337 ****
 30 HA     32.183000   33.984000   22.981000 H     4 ALA     0.0823 ****
 31 CB     30.134000   34.076000   22.338000 C     4 ALA    -0.1825 ****
 32 HB1    29.159000   34.353000   22.743000 H     4 ALA     0.0603 ****
 33 HB2    30.347000   34.690000   21.463000 H     4 ALA     0.0603 ****
 34 HB3    30.108000   33.029000   22.034000 H     4 ALA     0.0603 ****
 35 C      31.325000   35.754000   23.835000 C     4 ALA     0.5973 ****
 36 O      30.824000   36.131000   24.895000 O     4 ALA    -0.5679 ****
 37 N      31.964000   36.589000   23.005000 N     5 NME    -0.4157 ****
 38 H      32.344000   36.207000   22.153000 H     5 NME     0.2719 ****
 39 CH3    32.144000   38.017000   23.261000 C     5 NME    -0.1490 ****
 40 HH31   32.699000   38.157000   24.191000 H     5 NME     0.0976 ****
 41 HH32   32.692000   38.483000   22.441000 H     5 NME     0.0976 ****
 42 HH33   31.169000   38.498000   23.363000 H     5 NME     0.0976 ****
@<TRIPOS>BOND
    1     5     6 1
    2     5     7 1
    3     2     3 1
    4     2     4 1
    5     2     5 1
    6     1     2 1
    7    15    16 1
    8    15    17 1
    9    11    12 1
   10    11    13 1
   11    11    14 1
   12     9    10 1
   13     9    11 1
   14     9    15 1
   15     7     8 1
   16     7     9 1
   17    25    26 1
   18    25    27 1
   19    21    22 1
   20    21    23 1
   21    21    24 1
   22    19    20 1
   23    19    21 1
   24    19    25 1
   25    17    18 1
   26    17    19 1
   27    35    36 1
   28    35    37 1
   29    31    32 1
   30    31    33 1
   31    31    34 1
   32    29    30 1
   33    29    31 1
   34    29    35 1
   35    27    28 1
   36    27    29 1
   37    39    40 1
   38    39    41 1
   39    39    42 1
   40    37    38 1
   41    37    39 1
@<TRIPOS>SUBSTRUCTURE
      1  ACE              1 ****               0 ****  **** 
      2  ALA              7 ****               0 ****  **** 
      3  ALA             17 ****               0 ****  **** 
      4  ALA             27 ****               0 ****  **** 
      5  NME             37 ****               0 ****  **** 
