@<TRIPOS>MOLECULE
default_name
   42    41     5     0     1 
SMALL
USER_CHARGES
@<TRIPOS>ATOM
  1 H1     26.134000   25.573000   23.159000 H     1 ACE     0.1123 ****
  2 CH3    26.495000   26.532000   22.790000 C     1 ACE    -0.3662 ****
  3 H2     25.668000   27.238000   22.736000 H     1 ACE     0.1123 ****
  4 H3     26.937000   26.401000   21.804000 H     1 ACE     0.1123 ****
  5 C      27.543000   27.060000   23.741000 C     1 ACE     0.5972 ****
  6 O      27.851000   26.416000   24.735000 O     1 ACE    -0.5679 ****
  7 N      28.086000   28.236000   23.436000 N     2 ALA    -0.4157 ****
  8 H      27.755000   28.724000   22.617000 H     2 ALA     0.2719 ****
  9 CA     29.096000   28.920000   24.242000 C     2 ALA     0.0337 ****
 10 HA     28.919000   28.695000   25.295000 H     2 ALA     0.0823 ****
 11 CB     30.485000   28.389000   23.857000 C     2 ALA    -0.1825 ****
 12 HB1    30.686000   28.599000   22.806000 H     2 ALA     0.0603 ****
 13 HB2    31.251000   28.866000   24.470000 H     2 ALA     0.0603 ****
 14 HB3    30.527000   27.311000   24.023000 H     2 ALA     0.0603 ****
 15 C      29.008000   30.447000   24.062000 C     2 ALA     0.5973 ****
 16 O      28.463000   30.931000   23.070000 O     2 ALA    -0.5679 ****
 17 N      29.575000   31.205000   25.004000 N     3 ALA    -0.4157 ****
 18 H      30.045000   30.751000   25.771000 H     3 ALA     0.2719 ****
 19 CA     29.563000   32.667000   25.002000 C     3 ALA     0.0337 ****
 20 HA     28.841000   33.031000   24.268000 H     3 ALA     0.0823 ****
 21 CB     29.097000   33.153000   26.381000 C     3 ALA    -0.1825 ****
 22 HB1    29.784000   32.806000   27.155000 H     3 ALA     0.0603 ****
 23 HB2    29.074000   34.243000   26.394000 H     3 ALA     0.0603 ****
 24 HB3    28.096000   32.774000   26.590000 H     3 ALA     0.0603 ****
 25 C      30.949000   33.213000   24.619000 C     3 ALA     0.5973 ****
 26 O      31.884000   33.181000   25.418000 O     3 ALA    -0.5679 ****
 27 N      31.092000   33.679000   23.377000 N     4 ALA    -0.4157 ****
 28 H      30.291000   33.676000   22.766000 H     4 ALA     0.2719 ****
 29 CA     32.302000   34.356000   22.915000 C     4 ALA     0.0337 ****
 30 HA     33.168000   33.779000   23.246000 H     4 ALA     0.0823 ****
 31 CB     32.301000   34.380000   21.381000 C     4 ALA    -0.1825 ****
 32 HB1    31.447000   34.954000   21.019000 H     4 ALA     0.0603 ****
 33 HB2    33.219000   34.846000   21.020000 H     4 ALA     0.0603 ****
 34 HB3    32.244000   33.362000   20.994000 H     4 ALA     0.0603 ****
 35 C      32.417000   35.775000   23.509000 C     4 ALA     0.5973 ****
 36 O      31.421000   36.491000   23.609000 O     4 ALA    -0.5679 ****
 37 N      33.639000   36.191000   23.864000 N     5 NME    -0.4157 ****
 38 H      34.404000   35.542000   23.771000 H     5 NME     0.2719 ****
 39 CH3    33.919000   37.509000   24.432000 C     5 NME    -0.1490 ****
 40 HH31   33.378000   37.624000   25.373000 H     5 NME     0.0976 ****
 41 HH32   34.988000   37.624000   24.615000 H     5 NME     0.0976 ****
 42 HH33   33.584000   38.286000   23.742000 H     5 NME     0.0976 ****
@<TRIPOS>BOND
    1     5     6 1
    2     5     7 1
    3     2     3 1
    4     2     4 1
    5     2     5 1
    6     1     2 1
    7    15    16 1
    8    15    17 1
    9    11    12 1
   10    11    13 1
   11    11    14 1
   12     9    10 1
   13     9    11 1
   14     9    15 1
   15     7     8 1
   16     7     9 1
   17    25    26 1
   18    25    27 1
   19    21    22 1
   20    21    23 1
   21    21    24 1
   22    19    20 1
   23    19    21 1
   24    19    25 1
   25    17    18 1
   26    17    19 1
   27    35    36 1
   28    35    37 1
   29    31    32 1
   30    31    33 1
   31    31    34 1
   32    29    30 1
   33    29    31 1
   34    29    35 1
   35    27    28 1
   36    27    29 1
   37    39    40 1
   38    39    41 1
   39    39    42 1
   40    37    38 1
   41    37    39 1
@<TRIPOS>SUBSTRUCTURE
      1  ACE              1 ****               0 ****  **** 
      2  ALA              7 ****               0 ****  **** 
      3  ALA             17 ****               0 ****  **** 
      4  ALA             27 ****               0 ****  **** 
      5  NME             37 ****               0 ****  **** 
