@<TRIPOS>MOLECULE
default_name
   42    41     5     0     1 
SMALL
USER_CHARGES
@<TRIPOS>ATOM
  1 H1     25.247000   28.313000   23.721000 H     1 ACE     0.1123 ****
  2 CH3    26.129000   28.109000   23.115000 C     1 ACE    -0.3662 ****
  3 H2     26.073000   28.680000   22.189000 H     1 ACE     0.1123 ****
  4 H3     26.181000   27.045000   22.894000 H     1 ACE     0.1123 ****
  5 C      27.360000   28.523000   23.885000 C     1 ACE     0.5972 ****
  6 O      27.255000   29.001000   25.008000 O     1 ACE    -0.5679 ****
  7 N      28.534000   28.341000   23.284000 N     2 ALA    -0.4157 ****
  8 H      28.544000   27.963000   22.352000 H     2 ALA     0.2719 ****
  9 CA     29.812000   28.741000   23.872000 C     2 ALA     0.0337 ****
 10 HA     29.829000   28.429000   24.918000 H     2 ALA     0.0823 ****
 11 CB     30.936000   27.991000   23.143000 C     2 ALA    -0.1825 ****
 12 HB1    30.940000   28.254000   22.084000 H     2 ALA     0.0603 ****
 13 HB2    31.898000   28.265000   23.578000 H     2 ALA     0.0603 ****
 14 HB3    30.794000   26.915000   23.248000 H     2 ALA     0.0603 ****
 15 C      29.994000   30.274000   23.829000 C     2 ALA     0.5973 ****
 16 O      30.408000   30.813000   22.809000 O     2 ALA    -0.5679 ****
 17 N      29.647000   30.942000   24.936000 N     3 ALA    -0.4157 ****
 18 H      29.223000   30.377000   25.656000 H     3 ALA     0.2719 ****
 19 CA     29.821000   32.359000   25.299000 C     3 ALA     0.0337 ****
 20 HA     28.944000   32.885000   24.919000 H     3 ALA     0.0823 ****
 21 CB     29.753000   32.448000   26.832000 C     3 ALA    -0.1825 ****
 22 HB1    30.597000   31.916000   27.274000 H     3 ALA     0.0603 ****
 23 HB2    29.796000   33.494000   27.140000 H     3 ALA     0.0603 ****
 24 HB3    28.821000   32.013000   27.193000 H     3 ALA     0.0603 ****
 25 C      31.043000   33.115000   24.712000 C     3 ALA     0.5973 ****
 26 O      32.031000   33.342000   25.411000 O     3 ALA    -0.5679 ****
 27 N      31.005000   33.496000   23.432000 N     4 ALA    -0.4157 ****
 28 H      30.189000   33.273000   22.886000 H     4 ALA     0.2719 ****
 29 CA     32.082000   34.217000   22.756000 C     4 ALA     0.0337 ****
 30 HA     33.035000   33.771000   23.044000 H     4 ALA     0.0823 ****
 31 CB     31.912000   34.017000   21.243000 C     4 ALA    -0.1825 ****
 32 HB1    30.959000   34.434000   20.913000 H     4 ALA     0.0603 ****
 33 HB2    32.721000   34.523000   20.715000 H     4 ALA     0.0603 ****
 34 HB3    31.941000   32.953000   21.005000 H     4 ALA     0.0603 ****
 35 C      32.111000   35.706000   23.165000 C     4 ALA     0.5973 ****
 36 O      31.421000   36.536000   22.575000 O     4 ALA    -0.5679 ****
 37 N      32.910000   36.040000   24.185000 N     5 NME    -0.4157 ****
 38 H      33.387000   35.290000   24.667000 H     5 NME     0.2719 ****
 39 CH3    33.061000   37.398000   24.702000 C     5 NME    -0.1490 ****
 40 HH31   32.092000   37.771000   25.041000 H     5 NME     0.0976 ****
 41 HH32   33.762000   37.408000   25.537000 H     5 NME     0.0976 ****
 42 HH33   33.430000   38.054000   23.911000 H     5 NME     0.0976 ****
@<TRIPOS>BOND
    1     5     6 1
    2     5     7 1
    3     2     3 1
    4     2     4 1
    5     2     5 1
    6     1     2 1
    7    15    16 1
    8    15    17 1
    9    11    12 1
   10    11    13 1
   11    11    14 1
   12     9    10 1
   13     9    11 1
   14     9    15 1
   15     7     8 1
   16     7     9 1
   17    25    26 1
   18    25    27 1
   19    21    22 1
   20    21    23 1
   21    21    24 1
   22    19    20 1
   23    19    21 1
   24    19    25 1
   25    17    18 1
   26    17    19 1
   27    35    36 1
   28    35    37 1
   29    31    32 1
   30    31    33 1
   31    31    34 1
   32    29    30 1
   33    29    31 1
   34    29    35 1
   35    27    28 1
   36    27    29 1
   37    39    40 1
   38    39    41 1
   39    39    42 1
   40    37    38 1
   41    37    39 1
@<TRIPOS>SUBSTRUCTURE
      1  ACE              1 ****               0 ****  **** 
      2  ALA              7 ****               0 ****  **** 
      3  ALA             17 ****               0 ****  **** 
      4  ALA             27 ****               0 ****  **** 
      5  NME             37 ****               0 ****  **** 
