@<TRIPOS>MOLECULE
default_name
   39    38     5     0     1 
SMALL
USER_CHARGES
@<TRIPOS>ATOM
  1 H1     26.367000   29.777000   21.505000 H     1 ACE     0.1123 ****
  2 CH3    27.233000   29.122000   21.595000 C     1 ACE    -0.3662 ****
  3 H2     28.004000   29.440000   20.895000 H     1 ACE     0.1123 ****
  4 H3     26.938000   28.096000   21.382000 H     1 ACE     0.1123 ****
  5 C      27.771000   29.209000   23.003000 C     1 ACE     0.5972 ****
  6 O      27.234000   29.943000   23.825000 O     1 ACE    -0.5679 ****
  7 N      28.836000   28.460000   23.284000 N     2 ALA    -0.4157 ****
  8 H      29.242000   27.907000   22.548000 H     2 ALA     0.2719 ****
  9 CA     29.524000   28.482000   24.575000 C     2 ALA     0.0337 ****
 10 HA     28.781000   28.395000   25.369000 H     2 ALA     0.0823 ****
 11 CB     30.443000   27.255000   24.655000 C     2 ALA    -0.1825 ****
 12 HB1    31.188000   27.290000   23.859000 H     2 ALA     0.0603 ****
 13 HB2    30.957000   27.248000   25.617000 H     2 ALA     0.0603 ****
 14 HB3    29.855000   26.341000   24.561000 H     2 ALA     0.0603 ****
 15 C      30.282000   29.813000   24.771000 C     2 ALA     0.5973 ****
 16 O      31.408000   29.953000   24.310000 O     2 ALA    -0.5679 ****
 17 N      29.634000   30.760000   25.460000 N     3 ALA    -0.4157 ****
 18 H      28.701000   30.514000   25.753000 H     3 ALA     0.2719 ****
 19 CA     29.999000   32.173000   25.638000 C     3 ALA     0.0337 ****
 20 HA     29.106000   32.691000   25.988000 H     3 ALA     0.0823 ****
 21 CB     31.034000   32.270000   26.768000 C     3 ALA    -0.1825 ****
 22 HB1    31.951000   31.754000   26.476000 H     3 ALA     0.0603 ****
 23 HB2    31.267000   33.317000   26.963000 H     3 ALA     0.0603 ****
 24 HB3    30.640000   31.816000   27.678000 H     3 ALA     0.0603 ****
 25 C      30.469000   32.904000   24.355000 C     3 ALA     0.5973 ****
 26 O      31.614000   32.809000   23.919000 O     3 ALA    -0.5679 ****
 27 N      29.596000   33.757000   23.808000 N     4 GLY    -0.4157 ****
 28 H      28.679000   33.837000   24.216000 H     4 GLY     0.2719 ****
 29 CA     29.916000   34.628000   22.673000 C     4 GLY    -0.0252 ****
 30 HA2    30.486000   34.070000   21.929000 H     4 GLY     0.0698 ****
 31 HA3    28.991000   34.969000   22.208000 H     4 GLY     0.0698 ****
 32 C      30.717000   35.861000   23.097000 C     4 GLY     0.5973 ****
 33 O      30.127000   36.879000   23.449000 O     4 GLY    -0.5679 ****
 34 N      32.051000   35.772000   23.058000 N     5 NME    -0.4157 ****
 35 H      32.451000   34.874000   22.821000 H     5 NME     0.2719 ****
 36 CH3    32.959000   36.856000   23.426000 C     5 NME    -0.1490 ****
 37 HH31   32.774000   37.154000   24.460000 H     5 NME     0.0976 ****
 38 HH32   33.995000   36.528000   23.326000 H     5 NME     0.0976 ****
 39 HH33   32.787000   37.717000   22.778000 H     5 NME     0.0976 ****
@<TRIPOS>BOND
    1     5     6 1
    2     5     7 1
    3     2     3 1
    4     2     4 1
    5     2     5 1
    6     1     2 1
    7    15    16 1
    8    15    17 1
    9    11    12 1
   10    11    13 1
   11    11    14 1
   12     9    10 1
   13     9    11 1
   14     9    15 1
   15     7     8 1
   16     7     9 1
   17    25    26 1
   18    25    27 1
   19    21    22 1
   20    21    23 1
   21    21    24 1
   22    19    20 1
   23    19    21 1
   24    19    25 1
   25    17    18 1
   26    17    19 1
   27    32    33 1
   28    32    34 1
   29    29    30 1
   30    29    31 1
   31    29    32 1
   32    27    28 1
   33    27    29 1
   34    36    37 1
   35    36    38 1
   36    36    39 1
   37    34    35 1
   38    34    36 1
@<TRIPOS>SUBSTRUCTURE
      1  ACE              1 ****               0 ****  **** 
      2  ALA              7 ****               0 ****  **** 
      3  ALA             17 ****               0 ****  **** 
      4  GLY             27 ****               0 ****  **** 
      5  NME             34 ****               0 ****  **** 
