@<TRIPOS>MOLECULE
default_name
   39    38     5     0     1 
SMALL
USER_CHARGES
@<TRIPOS>ATOM
  1 H1     29.598000   25.746000   22.731000 H     1 ACE     0.1123 ****
  2 CH3    28.881000   26.482000   23.093000 C     1 ACE    -0.3662 ****
  3 H2     28.693000   26.319000   24.153000 H     1 ACE     0.1123 ****
  4 H3     27.952000   26.394000   22.532000 H     1 ACE     0.1123 ****
  5 C      29.455000   27.865000   22.893000 C     1 ACE     0.5972 ****
  6 O      30.563000   28.002000   22.391000 O     1 ACE    -0.5679 ****
  7 N      28.701000   28.884000   23.296000 N     2 ALA    -0.4157 ****
  8 H      27.817000   28.686000   23.740000 H     2 ALA     0.2719 ****
  9 CA     29.081000   30.294000   23.206000 C     2 ALA     0.0337 ****
 10 HA     30.165000   30.377000   23.307000 H     2 ALA     0.0823 ****
 11 CB     28.686000   30.830000   21.823000 C     2 ALA    -0.1825 ****
 12 HB1    27.604000   30.773000   21.695000 H     2 ALA     0.0603 ****
 13 HB2    29.005000   31.868000   21.721000 H     2 ALA     0.0603 ****
 14 HB3    29.172000   30.239000   21.046000 H     2 ALA     0.0603 ****
 15 C      28.437000   31.114000   24.342000 C     2 ALA     0.5973 ****
 16 O      27.471000   30.664000   24.955000 O     2 ALA    -0.5679 ****
 17 N      28.983000   32.313000   24.578000 N     3 ALA    -0.4157 ****
 18 H      29.744000   32.568000   23.955000 H     3 ALA     0.2719 ****
 19 CA     28.683000   33.312000   25.627000 C     3 ALA     0.0337 ****
 20 HA     27.894000   33.986000   25.289000 H     3 ALA     0.0823 ****
 21 CB     28.273000   32.658000   26.961000 C     3 ALA    -0.1825 ****
 22 HB1    28.980000   31.876000   27.241000 H     3 ALA     0.0603 ****
 23 HB2    28.247000   33.415000   27.746000 H     3 ALA     0.0603 ****
 24 HB3    27.273000   32.232000   26.879000 H     3 ALA     0.0603 ****
 25 C      29.959000   34.134000   25.889000 C     3 ALA     0.5973 ****
 26 O      29.920000   35.361000   25.898000 O     3 ALA    -0.5679 ****
 27 N      31.110000   33.457000   25.956000 N     4 GLY    -0.4157 ****
 28 H      31.038000   32.452000   25.976000 H     4 GLY     0.2719 ****
 29 CA     32.352000   34.009000   25.415000 C     4 GLY    -0.0252 ****
 30 HA2    32.454000   35.054000   25.711000 H     4 GLY     0.0698 ****
 31 HA3    33.205000   33.453000   25.802000 H     4 GLY     0.0698 ****
 32 C      32.355000   33.918000   23.881000 C     4 GLY     0.5973 ****
 33 O      31.561000   33.170000   23.303000 O     4 GLY    -0.5679 ****
 34 N      33.247000   34.670000   23.228000 N     5 NME    -0.4157 ****
 35 H      33.851000   35.269000   23.769000 H     5 NME     0.2719 ****
 36 CH3    33.378000   34.697000   21.772000 C     5 NME    -0.1490 ****
 37 HH31   32.450000   35.060000   21.325000 H     5 NME     0.0976 ****
 38 HH32   34.199000   35.353000   21.477000 H     5 NME     0.0976 ****
 39 HH33   33.572000   33.689000   21.399000 H     5 NME     0.0976 ****
@<TRIPOS>BOND
    1     5     6 1
    2     5     7 1
    3     2     3 1
    4     2     4 1
    5     2     5 1
    6     1     2 1
    7    15    16 1
    8    15    17 1
    9    11    12 1
   10    11    13 1
   11    11    14 1
   12     9    10 1
   13     9    11 1
   14     9    15 1
   15     7     8 1
   16     7     9 1
   17    25    26 1
   18    25    27 1
   19    21    22 1
   20    21    23 1
   21    21    24 1
   22    19    20 1
   23    19    21 1
   24    19    25 1
   25    17    18 1
   26    17    19 1
   27    32    33 1
   28    32    34 1
   29    29    30 1
   30    29    31 1
   31    29    32 1
   32    27    28 1
   33    27    29 1
   34    36    37 1
   35    36    38 1
   36    36    39 1
   37    34    35 1
   38    34    36 1
@<TRIPOS>SUBSTRUCTURE
      1  ACE              1 ****               0 ****  **** 
      2  ALA              7 ****               0 ****  **** 
      3  ALA             17 ****               0 ****  **** 
      4  GLY             27 ****               0 ****  **** 
      5  NME             34 ****               0 ****  **** 
