@<TRIPOS>MOLECULE
default_name
   39    38     5     0     1 
SMALL
USER_CHARGES
@<TRIPOS>ATOM
  1 H1     27.135000   29.731000   20.967000 H     1 ACE     0.1123 ****
  2 CH3    27.470000   30.516000   21.643000 C     1 ACE    -0.3662 ****
  3 H2     26.740000   31.324000   21.654000 H     1 ACE     0.1123 ****
  4 H3     28.436000   30.901000   21.319000 H     1 ACE     0.1123 ****
  5 C      27.602000   29.955000   23.039000 C     1 ACE     0.5972 ****
  6 O      26.965000   30.445000   23.961000 O     1 ACE    -0.5679 ****
  7 N      28.451000   28.941000   23.193000 N     2 ALA    -0.4157 ****
  8 H      28.944000   28.617000   22.377000 H     2 ALA     0.2719 ****
  9 CA     28.772000   28.289000   24.470000 C     2 ALA     0.0337 ****
 10 HA     27.919000   28.408000   25.140000 H     2 ALA     0.0823 ****
 11 CB     28.946000   26.786000   24.205000 C     2 ALA    -0.1825 ****
 12 HB1    29.813000   26.616000   23.565000 H     2 ALA     0.0603 ****
 13 HB2    29.098000   26.262000   25.151000 H     2 ALA     0.0603 ****
 14 HB3    28.052000   26.386000   23.724000 H     2 ALA     0.0603 ****
 15 C      29.986000   28.934000   25.189000 C     2 ALA     0.5973 ****
 16 O      30.797000   28.228000   25.783000 O     2 ALA    -0.5679 ****
 17 N      30.100000   30.266000   25.094000 N     3 ALA    -0.4157 ****
 18 H      29.319000   30.715000   24.645000 H     3 ALA     0.2719 ****
 19 CA     31.275000   31.140000   25.247000 C     3 ALA     0.0337 ****
 20 HA     31.221000   31.641000   26.214000 H     3 ALA     0.0823 ****
 21 CB     32.619000   30.393000   25.153000 C     3 ALA    -0.1825 ****
 22 HB1    32.651000   29.786000   24.247000 H     3 ALA     0.0603 ****
 23 HB2    33.438000   31.112000   25.125000 H     3 ALA     0.0603 ****
 24 HB3    32.759000   29.756000   26.026000 H     3 ALA     0.0603 ****
 25 C      31.226000   32.195000   24.124000 C     3 ALA     0.5973 ****
 26 O      31.172000   31.859000   22.941000 O     3 ALA    -0.5679 ****
 27 N      31.167000   33.476000   24.494000 N     4 GLY    -0.4157 ****
 28 H      31.193000   33.710000   25.478000 H     4 GLY     0.2719 ****
 29 CA     31.071000   34.600000   23.561000 C     4 GLY    -0.0252 ****
 30 HA2    31.924000   34.580000   22.882000 H     4 GLY     0.0698 ****
 31 HA3    30.159000   34.502000   22.971000 H     4 GLY     0.0698 ****
 32 C      31.048000   35.950000   24.282000 C     4 GLY     0.5973 ****
 33 O      31.124000   36.001000   25.508000 O     4 GLY    -0.5679 ****
 34 N      30.943000   37.043000   23.516000 N     5 NME    -0.4157 ****
 35 H      30.885000   36.918000   22.518000 H     5 NME     0.2719 ****
 36 CH3    30.905000   38.406000   24.043000 C     5 NME    -0.1490 ****
 37 HH31   30.052000   38.518000   24.715000 H     5 NME     0.0976 ****
 38 HH32   31.818000   38.610000   24.606000 H     5 NME     0.0976 ****
 39 HH33   30.817000   39.126000   23.228000 H     5 NME     0.0976 ****
@<TRIPOS>BOND
    1     5     6 1
    2     5     7 1
    3     2     3 1
    4     2     4 1
    5     2     5 1
    6     1     2 1
    7    15    16 1
    8    15    17 1
    9    11    12 1
   10    11    13 1
   11    11    14 1
   12     9    10 1
   13     9    11 1
   14     9    15 1
   15     7     8 1
   16     7     9 1
   17    25    26 1
   18    25    27 1
   19    21    22 1
   20    21    23 1
   21    21    24 1
   22    19    20 1
   23    19    21 1
   24    19    25 1
   25    17    18 1
   26    17    19 1
   27    32    33 1
   28    32    34 1
   29    29    30 1
   30    29    31 1
   31    29    32 1
   32    27    28 1
   33    27    29 1
   34    36    37 1
   35    36    38 1
   36    36    39 1
   37    34    35 1
   38    34    36 1
@<TRIPOS>SUBSTRUCTURE
      1  ACE              1 ****               0 ****  **** 
      2  ALA              7 ****               0 ****  **** 
      3  ALA             17 ****               0 ****  **** 
      4  GLY             27 ****               0 ****  **** 
      5  NME             34 ****               0 ****  **** 
