@<TRIPOS>MOLECULE
default_name
   39    38     5     0     1 
SMALL
USER_CHARGES
@<TRIPOS>ATOM
  1 H1     24.910000   27.835000   23.911000 H     1 ACE     0.1123 ****
  2 CH3    25.725000   27.746000   23.194000 C     1 ACE    -0.3662 ****
  3 H2     25.538000   28.402000   22.346000 H     1 ACE     0.1123 ****
  4 H3     25.803000   26.714000   22.857000 H     1 ACE     0.1123 ****
  5 C      27.015000   28.153000   23.866000 C     1 ACE     0.5972 ****
  6 O      27.014000   28.511000   25.037000 O     1 ACE    -0.5679 ****
  7 N      28.119000   28.099000   23.124000 N     2 ALA    -0.4157 ****
  8 H      28.038000   27.823000   22.160000 H     2 ALA     0.2719 ****
  9 CA     29.434000   28.529000   23.598000 C     2 ALA     0.0337 ****
 10 HA     29.582000   28.157000   24.614000 H     2 ALA     0.0823 ****
 11 CB     30.505000   27.887000   22.705000 C     2 ALA    -0.1825 ****
 12 HB1    30.380000   28.215000   21.672000 H     2 ALA     0.0603 ****
 13 HB2    31.494000   28.190000   23.051000 H     2 ALA     0.0603 ****
 14 HB3    30.429000   26.800000   22.754000 H     2 ALA     0.0603 ****
 15 C      29.542000   30.067000   23.636000 C     2 ALA     0.5973 ****
 16 O      29.793000   30.700000   22.612000 O     2 ALA    -0.5679 ****
 17 N      29.261000   30.665000   24.800000 N     3 ALA    -0.4157 ****
 18 H      28.891000   30.066000   25.522000 H     3 ALA     0.2719 ****
 19 CA     29.738000   31.979000   25.248000 C     3 ALA     0.0337 ****
 20 HA     28.930000   32.685000   25.056000 H     3 ALA     0.0823 ****
 21 CB     29.945000   31.920000   26.767000 C     3 ALA    -0.1825 ****
 22 HB1    30.746000   31.217000   27.003000 H     3 ALA     0.0603 ****
 23 HB2    30.218000   32.907000   27.142000 H     3 ALA     0.0603 ****
 24 HB3    29.025000   31.599000   27.258000 H     3 ALA     0.0603 ****
 25 C      30.992000   32.539000   24.531000 C     3 ALA     0.5973 ****
 26 O      31.938000   31.811000   24.234000 O     3 ALA    -0.5679 ****
 27 N      31.082000   33.867000   24.427000 N     4 GLY    -0.4157 ****
 28 H      30.313000   34.443000   24.741000 H     4 GLY     0.2719 ****
 29 CA     32.226000   34.566000   23.840000 C     4 GLY    -0.0252 ****
 30 HA2    33.128000   34.315000   24.398000 H     4 GLY     0.0698 ****
 31 HA3    32.356000   34.235000   22.810000 H     4 GLY     0.0698 ****
 32 C      32.048000   36.087000   23.851000 C     4 GLY     0.5973 ****
 33 O      31.057000   36.596000   24.373000 O     4 GLY    -0.5679 ****
 34 N      33.014000   36.810000   23.274000 N     5 NME    -0.4157 ****
 35 H      33.793000   36.317000   22.866000 H     5 NME     0.2719 ****
 36 CH3    33.004000   38.269000   23.193000 C     5 NME    -0.1490 ****
 37 HH31   32.972000   38.693000   24.199000 H     5 NME     0.0976 ****
 38 HH32   33.897000   38.627000   22.680000 H     5 NME     0.0976 ****
 39 HH33   32.118000   38.602000   22.649000 H     5 NME     0.0976 ****
@<TRIPOS>BOND
    1     5     6 1
    2     5     7 1
    3     2     3 1
    4     2     4 1
    5     2     5 1
    6     1     2 1
    7    15    16 1
    8    15    17 1
    9    11    12 1
   10    11    13 1
   11    11    14 1
   12     9    10 1
   13     9    11 1
   14     9    15 1
   15     7     8 1
   16     7     9 1
   17    25    26 1
   18    25    27 1
   19    21    22 1
   20    21    23 1
   21    21    24 1
   22    19    20 1
   23    19    21 1
   24    19    25 1
   25    17    18 1
   26    17    19 1
   27    32    33 1
   28    32    34 1
   29    29    30 1
   30    29    31 1
   31    29    32 1
   32    27    28 1
   33    27    29 1
   34    36    37 1
   35    36    38 1
   36    36    39 1
   37    34    35 1
   38    34    36 1
@<TRIPOS>SUBSTRUCTURE
      1  ACE              1 ****               0 ****  **** 
      2  ALA              7 ****               0 ****  **** 
      3  ALA             17 ****               0 ****  **** 
      4  GLY             27 ****               0 ****  **** 
      5  NME             34 ****               0 ****  **** 
