@<TRIPOS>MOLECULE
default_name
   39    38     5     0     1 
SMALL
USER_CHARGES
@<TRIPOS>ATOM
  1 H1     25.346000   29.706000   21.196000 H     1 ACE     0.1123 ****
  2 CH3    26.366000   30.075000   21.297000 C     1 ACE    -0.3662 ****
  3 H2     26.370000   31.160000   21.220000 H     1 ACE     0.1123 ****
  4 H3     26.989000   29.643000   20.517000 H     1 ACE     0.1123 ****
  5 C      26.902000   29.666000   22.649000 C     1 ACE     0.5972 ****
  6 O      26.203000   29.024000   23.421000 O     1 ACE    -0.5679 ****
  7 N      28.145000   30.046000   22.937000 N     2 ALA    -0.4157 ****
  8 H      28.650000   30.602000   22.262000 H     2 ALA     0.2719 ****
  9 CA     28.828000   29.761000   24.199000 C     2 ALA     0.0337 ****
 10 HA     28.088000   29.741000   25.001000 H     2 ALA     0.0823 ****
 11 CB     29.482000   28.374000   24.108000 C     2 ALA    -0.1825 ****
 12 HB1    30.224000   28.363000   23.308000 H     2 ALA     0.0603 ****
 13 HB2    29.969000   28.126000   25.051000 H     2 ALA     0.0603 ****
 14 HB3    28.721000   27.620000   23.899000 H     2 ALA     0.0603 ****
 15 C      29.862000   30.852000   24.534000 C     2 ALA     0.5973 ****
 16 O      30.311000   31.564000   23.640000 O     2 ALA    -0.5679 ****
 17 N      30.243000   30.937000   25.814000 N     3 ALA    -0.4157 ****
 18 H      29.807000   30.274000   26.435000 H     3 ALA     0.2719 ****
 19 CA     31.151000   31.893000   26.474000 C     3 ALA     0.0337 ****
 20 HA     30.642000   32.235000   27.377000 H     3 ALA     0.0823 ****
 21 CB     32.394000   31.117000   26.937000 C     3 ALA    -0.1825 ****
 22 HB1    32.926000   30.704000   26.079000 H     3 ALA     0.0603 ****
 23 HB2    33.061000   31.786000   27.484000 H     3 ALA     0.0603 ****
 24 HB3    32.099000   30.302000   27.599000 H     3 ALA     0.0603 ****
 25 C      31.542000   33.190000   25.721000 C     3 ALA     0.5973 ****
 26 O      31.085000   34.263000   26.103000 O     3 ALA    -0.5679 ****
 27 N      32.390000   33.118000   24.688000 N     4 GLY    -0.4157 ****
 28 H      32.633000   32.199000   24.353000 H     4 GLY     0.2719 ****
 29 CA     32.941000   34.277000   23.964000 C     4 GLY    -0.0252 ****
 30 HA2    33.258000   35.023000   24.693000 H     4 GLY     0.0698 ****
 31 HA3    33.821000   33.957000   23.407000 H     4 GLY     0.0698 ****
 32 C      31.997000   34.981000   22.976000 C     4 GLY     0.5973 ****
 33 O      32.471000   35.766000   22.159000 O     4 GLY    -0.5679 ****
 34 N      30.691000   34.692000   23.006000 N     5 NME    -0.4157 ****
 35 H      30.379000   34.048000   23.717000 H     5 NME     0.2719 ****
 36 CH3    29.692000   35.276000   22.114000 C     5 NME    -0.1490 ****
 37 HH31   29.665000   36.358000   22.253000 H     5 NME     0.0976 ****
 38 HH32   29.958000   35.063000   21.076000 H     5 NME     0.0976 ****
 39 HH33   28.708000   34.859000   22.329000 H     5 NME     0.0976 ****
@<TRIPOS>BOND
    1     5     6 1
    2     5     7 1
    3     2     3 1
    4     2     4 1
    5     2     5 1
    6     1     2 1
    7    15    16 1
    8    15    17 1
    9    11    12 1
   10    11    13 1
   11    11    14 1
   12     9    10 1
   13     9    11 1
   14     9    15 1
   15     7     8 1
   16     7     9 1
   17    25    26 1
   18    25    27 1
   19    21    22 1
   20    21    23 1
   21    21    24 1
   22    19    20 1
   23    19    21 1
   24    19    25 1
   25    17    18 1
   26    17    19 1
   27    32    33 1
   28    32    34 1
   29    29    30 1
   30    29    31 1
   31    29    32 1
   32    27    28 1
   33    27    29 1
   34    36    37 1
   35    36    38 1
   36    36    39 1
   37    34    35 1
   38    34    36 1
@<TRIPOS>SUBSTRUCTURE
      1  ACE              1 ****               0 ****  **** 
      2  ALA              7 ****               0 ****  **** 
      3  ALA             17 ****               0 ****  **** 
      4  GLY             27 ****               0 ****  **** 
      5  NME             34 ****               0 ****  **** 
