@<TRIPOS>MOLECULE
default_name
   39    38     5     0     1 
SMALL
USER_CHARGES
@<TRIPOS>ATOM
  1 H1     25.343000   28.950000   22.908000 H     1 ACE     0.1123 ****
  2 CH3    26.325000   28.783000   22.466000 C     1 ACE    -0.3662 ****
  3 H2     26.533000   29.563000   21.736000 H     1 ACE     0.1123 ****
  4 H3     26.342000   27.807000   21.984000 H     1 ACE     0.1123 ****
  5 C      27.365000   28.819000   23.560000 C     1 ACE     0.5972 ****
  6 O      27.032000   29.014000   24.719000 O     1 ACE    -0.5679 ****
  7 N      28.633000   28.655000   23.185000 N     2 ALA    -0.4157 ****
  8 H      28.816000   28.493000   22.209000 H     2 ALA     0.2719 ****
  9 CA     29.772000   28.550000   24.108000 C     2 ALA     0.0337 ****
 10 HA     29.466000   27.913000   24.940000 H     2 ALA     0.0823 ****
 11 CB     30.905000   27.828000   23.363000 C     2 ALA    -0.1825 ****
 12 HB1    31.269000   28.447000   22.542000 H     2 ALA     0.0603 ****
 13 HB2    31.731000   27.632000   24.049000 H     2 ALA     0.0603 ****
 14 HB3    30.549000   26.874000   22.972000 H     2 ALA     0.0603 ****
 15 C      30.249000   29.881000   24.748000 C     2 ALA     0.5973 ****
 16 O      31.336000   29.925000   25.315000 O     2 ALA    -0.5679 ****
 17 N      29.487000   30.974000   24.609000 N     3 ALA    -0.4157 ****
 18 H      28.600000   30.847000   24.153000 H     3 ALA     0.2719 ****
 19 CA     29.692000   32.253000   25.305000 C     3 ALA     0.0337 ****
 20 HA     28.832000   32.870000   25.042000 H     3 ALA     0.0823 ****
 21 CB     29.605000   32.070000   26.830000 C     3 ALA    -0.1825 ****
 22 HB1    30.475000   31.523000   27.195000 H     3 ALA     0.0603 ****
 23 HB2    29.583000   33.047000   27.315000 H     3 ALA     0.0603 ****
 24 HB3    28.698000   31.523000   27.091000 H     3 ALA     0.0603 ****
 25 C      30.909000   33.057000   24.794000 C     3 ALA     0.5973 ****
 26 O      31.665000   33.640000   25.569000 O     3 ALA    -0.5679 ****
 27 N      31.068000   33.140000   23.468000 N     4 GLY    -0.4157 ****
 28 H      30.413000   32.656000   22.879000 H     4 GLY     0.2719 ****
 29 CA     32.127000   33.924000   22.825000 C     4 GLY    -0.0252 ****
 30 HA2    33.070000   33.769000   23.350000 H     4 GLY     0.0698 ****
 31 HA3    32.251000   33.587000   21.796000 H     4 GLY     0.0698 ****
 32 C      31.804000   35.419000   22.802000 C     4 GLY     0.5973 ****
 33 O      31.161000   35.888000   21.866000 O     4 GLY    -0.5679 ****
 34 N      32.247000   36.159000   23.824000 N     5 NME    -0.4157 ****
 35 H      32.705000   35.674000   24.584000 H     5 NME     0.2719 ****
 36 CH3    32.032000   37.598000   23.952000 C     5 NME    -0.1490 ****
 37 HH31   32.478000   37.964000   24.878000 H     5 NME     0.0976 ****
 38 HH32   32.482000   38.116000   23.103000 H     5 NME     0.0976 ****
 39 HH33   30.961000   37.810000   23.962000 H     5 NME     0.0976 ****
@<TRIPOS>BOND
    1     5     6 1
    2     5     7 1
    3     2     3 1
    4     2     4 1
    5     2     5 1
    6     1     2 1
    7    15    16 1
    8    15    17 1
    9    11    12 1
   10    11    13 1
   11    11    14 1
   12     9    10 1
   13     9    11 1
   14     9    15 1
   15     7     8 1
   16     7     9 1
   17    25    26 1
   18    25    27 1
   19    21    22 1
   20    21    23 1
   21    21    24 1
   22    19    20 1
   23    19    21 1
   24    19    25 1
   25    17    18 1
   26    17    19 1
   27    32    33 1
   28    32    34 1
   29    29    30 1
   30    29    31 1
   31    29    32 1
   32    27    28 1
   33    27    29 1
   34    36    37 1
   35    36    38 1
   36    36    39 1
   37    34    35 1
   38    34    36 1
@<TRIPOS>SUBSTRUCTURE
      1  ACE              1 ****               0 ****  **** 
      2  ALA              7 ****               0 ****  **** 
      3  ALA             17 ****               0 ****  **** 
      4  GLY             27 ****               0 ****  **** 
      5  NME             34 ****               0 ****  **** 
