@<TRIPOS>MOLECULE
default_name
   39    38     5     0     1 
SMALL
USER_CHARGES
@<TRIPOS>ATOM
  1 H1     26.407000   25.034000   24.968000 H     1 ACE     0.1123 ****
  2 CH3    26.250000   26.057000   24.627000 C     1 ACE    -0.3662 ****
  3 H2     25.800000   26.643000   25.426000 H     1 ACE     0.1123 ****
  4 H3     25.601000   26.056000   23.754000 H     1 ACE     0.1123 ****
  5 C      27.585000   26.659000   24.257000 C     1 ACE     0.5972 ****
  6 O      28.609000   25.998000   24.366000 O     1 ACE    -0.5679 ****
  7 N      27.570000   27.918000   23.825000 N     2 ALA    -0.4157 ****
  8 H      26.690000   28.410000   23.799000 H     2 ALA     0.2719 ****
  9 CA     28.756000   28.684000   23.442000 C     2 ALA     0.0337 ****
 10 HA     29.597000   28.366000   24.061000 H     2 ALA     0.0823 ****
 11 CB     29.091000   28.382000   21.974000 C     2 ALA    -0.1825 ****
 12 HB1    28.264000   28.690000   21.332000 H     2 ALA     0.0603 ****
 13 HB2    29.992000   28.921000   21.679000 H     2 ALA     0.0603 ****
 14 HB3    29.266000   27.313000   21.847000 H     2 ALA     0.0603 ****
 15 C      28.539000   30.191000   23.675000 C     2 ALA     0.5973 ****
 16 O      27.401000   30.649000   23.775000 O     2 ALA    -0.5679 ****
 17 N      29.631000   30.957000   23.731000 N     3 ALA    -0.4157 ****
 18 H      30.530000   30.524000   23.569000 H     3 ALA     0.2719 ****
 19 CA     29.648000   32.409000   23.930000 C     3 ALA     0.0337 ****
 20 HA     28.907000   32.880000   23.282000 H     3 ALA     0.0823 ****
 21 CB     29.288000   32.693000   25.403000 C     3 ALA    -0.1825 ****
 22 HB1    30.041000   32.259000   26.063000 H     3 ALA     0.0603 ****
 23 HB2    29.229000   33.767000   25.580000 H     3 ALA     0.0603 ****
 24 HB3    28.315000   32.262000   25.643000 H     3 ALA     0.0603 ****
 25 C      31.046000   32.971000   23.576000 C     3 ALA     0.5973 ****
 26 O      31.860000   32.274000   22.971000 O     3 ALA    -0.5679 ****
 27 N      31.350000   34.207000   23.980000 N     4 GLY    -0.4157 ****
 28 H      30.661000   34.741000   24.492000 H     4 GLY     0.2719 ****
 29 CA     32.639000   34.861000   23.743000 C     4 GLY    -0.0252 ****
 30 HA2    33.435000   34.259000   24.182000 H     4 GLY     0.0698 ****
 31 HA3    32.815000   34.935000   22.670000 H     4 GLY     0.0698 ****
 32 C      32.694000   36.266000   24.349000 C     4 GLY     0.5973 ****
 33 O      31.723000   36.721000   24.951000 O     4 GLY    -0.5679 ****
 34 N      33.833000   36.949000   24.188000 N     5 NME    -0.4157 ****
 35 H      34.584000   36.507000   23.682000 H     5 NME     0.2719 ****
 36 CH3    34.053000   38.300000   24.702000 C     5 NME    -0.1490 ****
 37 HH31   33.938000   38.304000   25.788000 H     5 NME     0.0976 ****
 38 HH32   35.055000   38.646000   24.445000 H     5 NME     0.0976 ****
 39 HH33   33.316000   38.982000   24.273000 H     5 NME     0.0976 ****
@<TRIPOS>BOND
    1     5     6 1
    2     5     7 1
    3     2     3 1
    4     2     4 1
    5     2     5 1
    6     1     2 1
    7    15    16 1
    8    15    17 1
    9    11    12 1
   10    11    13 1
   11    11    14 1
   12     9    10 1
   13     9    11 1
   14     9    15 1
   15     7     8 1
   16     7     9 1
   17    25    26 1
   18    25    27 1
   19    21    22 1
   20    21    23 1
   21    21    24 1
   22    19    20 1
   23    19    21 1
   24    19    25 1
   25    17    18 1
   26    17    19 1
   27    32    33 1
   28    32    34 1
   29    29    30 1
   30    29    31 1
   31    29    32 1
   32    27    28 1
   33    27    29 1
   34    36    37 1
   35    36    38 1
   36    36    39 1
   37    34    35 1
   38    34    36 1
@<TRIPOS>SUBSTRUCTURE
      1  ACE              1 ****               0 ****  **** 
      2  ALA              7 ****               0 ****  **** 
      3  ALA             17 ****               0 ****  **** 
      4  GLY             27 ****               0 ****  **** 
      5  NME             34 ****               0 ****  **** 
