@<TRIPOS>MOLECULE
default_name
   39    38     5     0     1 
SMALL
USER_CHARGES
@<TRIPOS>ATOM
  1 H1     27.010000   25.630000   22.787000 H     1 ACE     0.1123 ****
  2 CH3    26.766000   26.666000   23.018000 C     1 ACE    -0.3662 ****
  3 H2     26.284000   26.720000   23.992000 H     1 ACE     0.1123 ****
  4 H3     26.103000   27.064000   22.252000 H     1 ACE     0.1123 ****
  5 C      28.041000   27.475000   23.044000 C     1 ACE     0.5972 ****
  6 O      29.117000   26.935000   22.824000 O     1 ACE    -0.5679 ****
  7 N      27.919000   28.771000   23.322000 N     2 ALA    -0.4157 ****
  8 H      27.003000   29.137000   23.533000 H     2 ALA     0.2719 ****
  9 CA     29.036000   29.711000   23.410000 C     2 ALA     0.0337 ****
 10 HA     29.917000   29.177000   23.772000 H     2 ALA     0.0823 ****
 11 CB     29.341000   30.255000   22.007000 C     2 ALA    -0.1825 ****
 12 HB1    28.474000   30.794000   21.620000 H     2 ALA     0.0603 ****
 13 HB2    30.195000   30.932000   22.044000 H     2 ALA     0.0603 ****
 14 HB3    29.579000   29.430000   21.334000 H     2 ALA     0.0603 ****
 15 C      28.729000   30.846000   24.404000 C     2 ALA     0.5973 ****
 16 O      27.570000   31.093000   24.733000 O     2 ALA    -0.5679 ****
 17 N      29.773000   31.540000   24.869000 N     3 ALA    -0.4157 ****
 18 H      30.684000   31.296000   24.518000 H     3 ALA     0.2719 ****
 19 CA     29.656000   32.693000   25.774000 C     3 ALA     0.0337 ****
 20 HA     28.704000   33.196000   25.588000 H     3 ALA     0.0823 ****
 21 CB     29.649000   32.182000   27.221000 C     3 ALA    -0.1825 ****
 22 HB1    30.579000   31.658000   27.446000 H     3 ALA     0.0603 ****
 23 HB2    29.539000   33.025000   27.905000 H     3 ALA     0.0603 ****
 24 HB3    28.808000   31.502000   27.369000 H     3 ALA     0.0603 ****
 25 C      30.764000   33.741000   25.555000 C     3 ALA     0.5973 ****
 26 O      30.490000   34.937000   25.523000 O     3 ALA    -0.5679 ****
 27 N      32.014000   33.302000   25.358000 N     4 GLY    -0.4157 ****
 28 H      32.199000   32.316000   25.426000 H     4 GLY     0.2719 ****
 29 CA     33.121000   34.180000   24.972000 C     4 GLY    -0.0252 ****
 30 HA2    33.113000   35.081000   25.587000 H     4 GLY     0.0698 ****
 31 HA3    34.068000   33.664000   25.132000 H     4 GLY     0.0698 ****
 32 C      33.035000   34.575000   23.496000 C     4 GLY     0.5973 ****
 33 O      33.522000   33.839000   22.643000 O     4 GLY    -0.5679 ****
 34 N      32.408000   35.719000   23.203000 N     5 NME    -0.4157 ****
 35 H      31.962000   36.212000   23.964000 H     5 NME     0.2719 ****
 36 CH3    32.240000   36.240000   21.849000 C     5 NME    -0.1490 ****
 37 HH31   31.698000   37.187000   21.874000 H     5 NME     0.0976 ****
 38 HH32   33.218000   36.396000   21.389000 H     5 NME     0.0976 ****
 39 HH33   31.681000   35.523000   21.245000 H     5 NME     0.0976 ****
@<TRIPOS>BOND
    1     5     6 1
    2     5     7 1
    3     2     3 1
    4     2     4 1
    5     2     5 1
    6     1     2 1
    7    15    16 1
    8    15    17 1
    9    11    12 1
   10    11    13 1
   11    11    14 1
   12     9    10 1
   13     9    11 1
   14     9    15 1
   15     7     8 1
   16     7     9 1
   17    25    26 1
   18    25    27 1
   19    21    22 1
   20    21    23 1
   21    21    24 1
   22    19    20 1
   23    19    21 1
   24    19    25 1
   25    17    18 1
   26    17    19 1
   27    32    33 1
   28    32    34 1
   29    29    30 1
   30    29    31 1
   31    29    32 1
   32    27    28 1
   33    27    29 1
   34    36    37 1
   35    36    38 1
   36    36    39 1
   37    34    35 1
   38    34    36 1
@<TRIPOS>SUBSTRUCTURE
      1  ACE              1 ****               0 ****  **** 
      2  ALA              7 ****               0 ****  **** 
      3  ALA             17 ****               0 ****  **** 
      4  GLY             27 ****               0 ****  **** 
      5  NME             34 ****               0 ****  **** 
