@<TRIPOS>MOLECULE
default_name
   39    38     5     0     1 
SMALL
USER_CHARGES
@<TRIPOS>ATOM
  1 H1     29.173000   26.513000   25.942000 H     1 ACE     0.1123 ****
  2 CH3    28.560000   26.720000   25.066000 C     1 ACE    -0.3662 ****
  3 H2     27.542000   26.943000   25.380000 H     1 ACE     0.1123 ****
  4 H3     28.566000   25.856000   24.404000 H     1 ACE     0.1123 ****
  5 C      29.133000   27.914000   24.340000 C     1 ACE     0.5972 ****
  6 O      30.134000   28.474000   24.767000 O     1 ACE    -0.5679 ****
  7 N      28.499000   28.305000   23.237000 N     2 ALA    -0.4157 ****
  8 H      27.671000   27.807000   22.956000 H     2 ALA     0.2719 ****
  9 CA     28.877000   29.486000   22.460000 C     2 ALA     0.0337 ****
 10 HA     29.966000   29.542000   22.413000 H     2 ALA     0.0823 ****
 11 CB     28.356000   29.306000   21.027000 C     2 ALA    -0.1825 ****
 12 HB1    27.268000   29.223000   21.029000 H     2 ALA     0.0603 ****
 13 HB2    28.641000   30.170000   20.425000 H     2 ALA     0.0603 ****
 14 HB3    28.787000   28.408000   20.583000 H     2 ALA     0.0603 ****
 15 C      28.366000   30.780000   23.130000 C     2 ALA     0.5973 ****
 16 O      27.262000   31.240000   22.843000 O     2 ALA    -0.5679 ****
 17 N      29.174000   31.368000   24.018000 N     3 ALA    -0.4157 ****
 18 H      30.037000   30.898000   24.247000 H     3 ALA     0.2719 ****
 19 CA     28.806000   32.525000   24.839000 C     3 ALA     0.0337 ****
 20 HA     28.310000   33.269000   24.214000 H     3 ALA     0.0823 ****
 21 CB     27.819000   32.065000   25.927000 C     3 ALA    -0.1825 ****
 22 HB1    28.271000   31.280000   26.536000 H     3 ALA     0.0603 ****
 23 HB2    27.563000   32.908000   26.570000 H     3 ALA     0.0603 ****
 24 HB3    26.905000   31.683000   25.471000 H     3 ALA     0.0603 ****
 25 C      30.067000   33.169000   25.452000 C     3 ALA     0.5973 ****
 26 O      30.396000   32.978000   26.621000 O     3 ALA    -0.5679 ****
 27 N      30.803000   33.926000   24.635000 N     4 GLY    -0.4157 ****
 28 H      30.509000   34.044000   23.675000 H     4 GLY     0.2719 ****
 29 CA     32.044000   34.595000   25.029000 C     4 GLY    -0.0252 ****
 30 HA2    31.830000   35.314000   25.820000 H     4 GLY     0.0698 ****
 31 HA3    32.745000   33.856000   25.417000 H     4 GLY     0.0698 ****
 32 C      32.705000   35.332000   23.860000 C     4 GLY     0.5973 ****
 33 O      32.193000   35.312000   22.742000 O     4 GLY    -0.5679 ****
 34 N      33.845000   35.981000   24.124000 N     5 NME    -0.4157 ****
 35 H      34.201000   35.949000   25.067000 H     5 NME     0.2719 ****
 36 CH3    34.604000   36.733000   23.127000 C     5 NME    -0.1490 ****
 37 HH31   34.907000   36.069000   22.315000 H     5 NME     0.0976 ****
 38 HH32   33.981000   37.527000   22.710000 H     5 NME     0.0976 ****
 39 HH33   35.493000   37.175000   23.580000 H     5 NME     0.0976 ****
@<TRIPOS>BOND
    1     5     6 1
    2     5     7 1
    3     2     3 1
    4     2     4 1
    5     2     5 1
    6     1     2 1
    7    15    16 1
    8    15    17 1
    9    11    12 1
   10    11    13 1
   11    11    14 1
   12     9    10 1
   13     9    11 1
   14     9    15 1
   15     7     8 1
   16     7     9 1
   17    25    26 1
   18    25    27 1
   19    21    22 1
   20    21    23 1
   21    21    24 1
   22    19    20 1
   23    19    21 1
   24    19    25 1
   25    17    18 1
   26    17    19 1
   27    32    33 1
   28    32    34 1
   29    29    30 1
   30    29    31 1
   31    29    32 1
   32    27    28 1
   33    27    29 1
   34    36    37 1
   35    36    38 1
   36    36    39 1
   37    34    35 1
   38    34    36 1
@<TRIPOS>SUBSTRUCTURE
      1  ACE              1 ****               0 ****  **** 
      2  ALA              7 ****               0 ****  **** 
      3  ALA             17 ****               0 ****  **** 
      4  GLY             27 ****               0 ****  **** 
      5  NME             34 ****               0 ****  **** 
