@<TRIPOS>MOLECULE
default_name
   39    38     5     0     1 
SMALL
USER_CHARGES
@<TRIPOS>ATOM
  1 H1     26.437000   25.756000   23.012000 H     1 ACE     0.1123 ****
  2 CH3    26.378000   26.843000   23.013000 C     1 ACE    -0.3662 ****
  3 H2     25.703000   27.172000   23.800000 H     1 ACE     0.1123 ****
  4 H3     26.019000   27.190000   22.046000 H     1 ACE     0.1123 ****
  5 C      27.756000   27.408000   23.265000 C     1 ACE     0.5972 ****
  6 O      28.709000   26.657000   23.428000 O     1 ACE    -0.5679 ****
  7 N      27.858000   28.734000   23.306000 N     2 ALA    -0.4157 ****
  8 H      27.022000   29.289000   23.201000 H     2 ALA     0.2719 ****
  9 CA     29.102000   29.463000   23.554000 C     2 ALA     0.0337 ****
 10 HA     29.732000   28.866000   24.215000 H     2 ALA     0.0823 ****
 11 CB     29.841000   29.654000   22.221000 C     2 ALA    -0.1825 ****
 12 HB1    29.229000   30.246000   21.537000 H     2 ALA     0.0603 ****
 13 HB2    30.788000   30.167000   22.386000 H     2 ALA     0.0603 ****
 14 HB3    30.044000   28.682000   21.769000 H     2 ALA     0.0603 ****
 15 C      28.828000   30.810000   24.247000 C     2 ALA     0.5973 ****
 16 O      27.716000   31.329000   24.185000 O     2 ALA    -0.5679 ****
 17 N      29.856000   31.378000   24.889000 N     3 ALA    -0.4157 ****
 18 H      30.715000   30.859000   24.933000 H     3 ALA     0.2719 ****
 19 CA     29.757000   32.623000   25.667000 C     3 ALA     0.0337 ****
 20 HA     28.852000   33.158000   25.370000 H     3 ALA     0.0823 ****
 21 CB     29.610000   32.245000   27.147000 C     3 ALA    -0.1825 ****
 22 HB1    30.498000   31.716000   27.493000 H     3 ALA     0.0603 ****
 23 HB2    29.479000   33.150000   27.742000 H     3 ALA     0.0603 ****
 24 HB3    28.733000   31.610000   27.282000 H     3 ALA     0.0603 ****
 25 C      30.925000   33.609000   25.449000 C     3 ALA     0.5973 ****
 26 O      30.811000   34.781000   25.798000 O     3 ALA    -0.5679 ****
 27 N      32.053000   33.161000   24.882000 N     4 GLY    -0.4157 ****
 28 H      32.091000   32.207000   24.568000 H     4 GLY     0.2719 ****
 29 CA     33.191000   34.025000   24.553000 C     4 GLY    -0.0252 ****
 30 HA2    33.377000   34.722000   25.371000 H     4 GLY     0.0698 ****
 31 HA3    34.083000   33.413000   24.416000 H     4 GLY     0.0698 ****
 32 C      32.953000   34.815000   23.265000 C     4 GLY     0.5973 ****
 33 O      33.280000   34.329000   22.187000 O     4 GLY    -0.5679 ****
 34 N      32.382000   36.019000   23.379000 N     5 NME    -0.4157 ****
 35 H      32.083000   36.308000   24.300000 H     5 NME     0.2719 ****
 36 CH3    32.085000   36.897000   22.249000 C     5 NME    -0.1490 ****
 37 HH31   31.621000   37.819000   22.601000 H     5 NME     0.0976 ****
 38 HH32   33.007000   37.137000   21.716000 H     5 NME     0.0976 ****
 39 HH33   31.405000   36.392000   21.560000 H     5 NME     0.0976 ****
@<TRIPOS>BOND
    1     5     6 1
    2     5     7 1
    3     2     3 1
    4     2     4 1
    5     2     5 1
    6     1     2 1
    7    15    16 1
    8    15    17 1
    9    11    12 1
   10    11    13 1
   11    11    14 1
   12     9    10 1
   13     9    11 1
   14     9    15 1
   15     7     8 1
   16     7     9 1
   17    25    26 1
   18    25    27 1
   19    21    22 1
   20    21    23 1
   21    21    24 1
   22    19    20 1
   23    19    21 1
   24    19    25 1
   25    17    18 1
   26    17    19 1
   27    32    33 1
   28    32    34 1
   29    29    30 1
   30    29    31 1
   31    29    32 1
   32    27    28 1
   33    27    29 1
   34    36    37 1
   35    36    38 1
   36    36    39 1
   37    34    35 1
   38    34    36 1
@<TRIPOS>SUBSTRUCTURE
      1  ACE              1 ****               0 ****  **** 
      2  ALA              7 ****               0 ****  **** 
      3  ALA             17 ****               0 ****  **** 
      4  GLY             27 ****               0 ****  **** 
      5  NME             34 ****               0 ****  **** 
