@<TRIPOS>MOLECULE
default_name
   39    38     5     0     1 
SMALL
USER_CHARGES
@<TRIPOS>ATOM
  1 H1     25.170000   28.288000   23.062000 H     1 ACE     0.1123 ****
  2 CH3    26.153000   28.023000   22.673000 C     1 ACE    -0.3662 ****
  3 H2     26.312000   28.519000   21.718000 H     1 ACE     0.1123 ****
  4 H3     26.216000   26.944000   22.548000 H     1 ACE     0.1123 ****
  5 C      27.206000   28.478000   23.655000 C     1 ACE     0.5972 ****
  6 O      26.883000   29.046000   24.690000 O     1 ACE    -0.5679 ****
  7 N      28.474000   28.227000   23.334000 N     2 ALA    -0.4157 ****
  8 H      28.668000   27.778000   22.455000 H     2 ALA     0.2719 ****
  9 CA     29.612000   28.667000   24.140000 C     2 ALA     0.0337 ****
 10 HA     29.381000   28.500000   25.194000 H     2 ALA     0.0823 ****
 11 CB     30.823000   27.792000   23.785000 C     2 ALA    -0.1825 ****
 12 HB1    31.075000   27.907000   22.730000 H     2 ALA     0.0603 ****
 13 HB2    31.681000   28.094000   24.387000 H     2 ALA     0.0603 ****
 14 HB3    30.598000   26.745000   23.991000 H     2 ALA     0.0603 ****
 15 C      29.886000   30.174000   23.942000 C     2 ALA     0.5973 ****
 16 O      30.536000   30.545000   22.973000 O     2 ALA    -0.5679 ****
 17 N      29.335000   30.992000   24.851000 N     3 ALA    -0.4157 ****
 18 H      28.718000   30.513000   25.490000 H     3 ALA     0.2719 ****
 19 CA     29.467000   32.433000   25.161000 C     3 ALA     0.0337 ****
 20 HA     28.452000   32.805000   25.310000 H     3 ALA     0.0823 ****
 21 CB     30.176000   32.523000   26.521000 C     3 ALA    -0.1825 ****
 22 HB1    31.197000   32.147000   26.438000 H     3 ALA     0.0603 ****
 23 HB2    30.206000   33.563000   26.850000 H     3 ALA     0.0603 ****
 24 HB3    29.635000   31.938000   27.266000 H     3 ALA     0.0603 ****
 25 C      30.122000   33.442000   24.180000 C     3 ALA     0.5973 ****
 26 O      29.524000   34.489000   23.936000 O     3 ALA    -0.5679 ****
 27 N      31.296000   33.177000   23.597000 N     4 GLY    -0.4157 ****
 28 H      31.823000   32.380000   23.912000 H     4 GLY     0.2719 ****
 29 CA     31.955000   34.074000   22.644000 C     4 GLY    -0.0252 ****
 30 HA2    32.713000   33.515000   22.094000 H     4 GLY     0.0698 ****
 31 HA3    31.224000   34.451000   21.928000 H     4 GLY     0.0698 ****
 32 C      32.640000   35.254000   23.336000 C     4 GLY     0.5973 ****
 33 O      33.794000   35.141000   23.742000 O     4 GLY    -0.5679 ****
 34 N      31.934000   36.383000   23.463000 N     5 NME    -0.4157 ****
 35 H      30.969000   36.362000   23.165000 H     5 NME     0.2719 ****
 36 CH3    32.439000   37.603000   24.089000 C     5 NME    -0.1490 ****
 37 HH31   32.726000   37.394000   25.121000 H     5 NME     0.0976 ****
 38 HH32   33.318000   37.958000   23.548000 H     5 NME     0.0976 ****
 39 HH33   31.671000   38.377000   24.079000 H     5 NME     0.0976 ****
@<TRIPOS>BOND
    1     5     6 1
    2     5     7 1
    3     2     3 1
    4     2     4 1
    5     2     5 1
    6     1     2 1
    7    15    16 1
    8    15    17 1
    9    11    12 1
   10    11    13 1
   11    11    14 1
   12     9    10 1
   13     9    11 1
   14     9    15 1
   15     7     8 1
   16     7     9 1
   17    25    26 1
   18    25    27 1
   19    21    22 1
   20    21    23 1
   21    21    24 1
   22    19    20 1
   23    19    21 1
   24    19    25 1
   25    17    18 1
   26    17    19 1
   27    32    33 1
   28    32    34 1
   29    29    30 1
   30    29    31 1
   31    29    32 1
   32    27    28 1
   33    27    29 1
   34    36    37 1
   35    36    38 1
   36    36    39 1
   37    34    35 1
   38    34    36 1
@<TRIPOS>SUBSTRUCTURE
      1  ACE              1 ****               0 ****  **** 
      2  ALA              7 ****               0 ****  **** 
      3  ALA             17 ****               0 ****  **** 
      4  GLY             27 ****               0 ****  **** 
      5  NME             34 ****               0 ****  **** 
