@<TRIPOS>MOLECULE
default_name
   39    38     5     0     1 
SMALL
USER_CHARGES
@<TRIPOS>ATOM
  1 H1     25.347000   28.227000   24.694000 H     1 ACE     0.1123 ****
  2 CH3    26.012000   28.268000   23.832000 C     1 ACE    -0.3662 ****
  3 H2     25.734000   29.106000   23.196000 H     1 ACE     0.1123 ****
  4 H3     25.936000   27.336000   23.274000 H     1 ACE     0.1123 ****
  5 C      27.431000   28.446000   24.317000 C     1 ACE     0.5972 ****
  6 O      27.666000   28.520000   25.514000 O     1 ACE    -0.5679 ****
  7 N      28.375000   28.539000   23.382000 N     2 ALA    -0.4157 ****
  8 H      28.091000   28.461000   22.420000 H     2 ALA     0.2719 ****
  9 CA     29.819000   28.610000   23.651000 C     2 ALA     0.0337 ****
 10 HA     30.040000   27.908000   24.458000 H     2 ALA     0.0823 ****
 11 CB     30.548000   28.116000   22.392000 C     2 ALA    -0.1825 ****
 12 HB1    30.386000   28.811000   21.568000 H     2 ALA     0.0603 ****
 13 HB2    31.619000   28.049000   22.591000 H     2 ALA     0.0603 ****
 14 HB3    30.186000   27.125000   22.114000 H     2 ALA     0.0603 ****
 15 C      30.348000   29.988000   24.132000 C     2 ALA     0.5973 ****
 16 O      31.555000   30.203000   24.122000 O     2 ALA    -0.5679 ****
 17 N      29.461000   30.920000   24.507000 N     3 ALA    -0.4157 ****
 18 H      28.498000   30.632000   24.519000 H     3 ALA     0.2719 ****
 19 CA     29.746000   32.245000   25.077000 C     3 ALA     0.0337 ****
 20 HA     28.854000   32.858000   24.942000 H     3 ALA     0.0823 ****
 21 CB     29.943000   32.074000   26.592000 C     3 ALA    -0.1825 ****
 22 HB1    30.828000   31.465000   26.783000 H     3 ALA     0.0603 ****
 23 HB2    30.081000   33.051000   27.057000 H     3 ALA     0.0603 ****
 24 HB3    29.071000   31.589000   27.032000 H     3 ALA     0.0603 ****
 25 C      30.908000   33.010000   24.397000 C     3 ALA     0.5973 ****
 26 O      31.980000   33.209000   24.967000 O     3 ALA    -0.5679 ****
 27 N      30.651000   33.535000   23.194000 N     4 GLY    -0.4157 ****
 28 H      29.746000   33.377000   22.783000 H     4 GLY     0.2719 ****
 29 CA     31.610000   34.355000   22.448000 C     4 GLY    -0.0252 ****
 30 HA2    32.603000   33.907000   22.510000 H     4 GLY     0.0698 ****
 31 HA3    31.317000   34.390000   21.399000 H     4 GLY     0.0698 ****
 32 C      31.674000   35.791000   22.974000 C     4 GLY     0.5973 ****
 33 O      30.897000   36.634000   22.534000 O     4 GLY    -0.5679 ****
 34 N      32.595000   36.064000   23.903000 N     5 NME    -0.4157 ****
 35 H      33.141000   35.291000   24.258000 H     5 NME     0.2719 ****
 36 CH3    32.793000   37.382000   24.504000 C     5 NME    -0.1490 ****
 37 HH31   31.871000   37.705000   24.991000 H     5 NME     0.0976 ****
 38 HH32   33.595000   37.341000   25.242000 H     5 NME     0.0976 ****
 39 HH33   33.051000   38.105000   23.728000 H     5 NME     0.0976 ****
@<TRIPOS>BOND
    1     5     6 1
    2     5     7 1
    3     2     3 1
    4     2     4 1
    5     2     5 1
    6     1     2 1
    7    15    16 1
    8    15    17 1
    9    11    12 1
   10    11    13 1
   11    11    14 1
   12     9    10 1
   13     9    11 1
   14     9    15 1
   15     7     8 1
   16     7     9 1
   17    25    26 1
   18    25    27 1
   19    21    22 1
   20    21    23 1
   21    21    24 1
   22    19    20 1
   23    19    21 1
   24    19    25 1
   25    17    18 1
   26    17    19 1
   27    32    33 1
   28    32    34 1
   29    29    30 1
   30    29    31 1
   31    29    32 1
   32    27    28 1
   33    27    29 1
   34    36    37 1
   35    36    38 1
   36    36    39 1
   37    34    35 1
   38    34    36 1
@<TRIPOS>SUBSTRUCTURE
      1  ACE              1 ****               0 ****  **** 
      2  ALA              7 ****               0 ****  **** 
      3  ALA             17 ****               0 ****  **** 
      4  GLY             27 ****               0 ****  **** 
      5  NME             34 ****               0 ****  **** 
