@<TRIPOS>MOLECULE
default_name
   39    38     5     0     1 
SMALL
USER_CHARGES
@<TRIPOS>ATOM
  1 H1     25.673000   31.418000   24.316000 H     1 ACE     0.1123 ****
  2 CH3    26.509000   31.557000   23.631000 C     1 ACE    -0.3662 ****
  3 H2     26.984000   32.517000   23.821000 H     1 ACE     0.1123 ****
  4 H3     26.149000   31.523000   22.605000 H     1 ACE     0.1123 ****
  5 C      27.510000   30.447000   23.844000 C     1 ACE     0.5972 ****
  6 O      27.322000   29.610000   24.716000 O     1 ACE    -0.5679 ****
  7 N      28.591000   30.453000   23.067000 N     2 ALA    -0.4157 ****
  8 H      28.719000   31.243000   22.452000 H     2 ALA     0.2719 ****
  9 CA     29.639000   29.419000   23.077000 C     2 ALA     0.0337 ****
 10 HA     29.160000   28.452000   23.238000 H     2 ALA     0.0823 ****
 11 CB     30.281000   29.400000   21.681000 C     2 ALA    -0.1825 ****
 12 HB1    30.802000   30.341000   21.498000 H     2 ALA     0.0603 ****
 13 HB2    30.999000   28.580000   21.618000 H     2 ALA     0.0603 ****
 14 HB3    29.515000   29.252000   20.920000 H     2 ALA     0.0603 ****
 15 C      30.693000   29.578000   24.205000 C     2 ALA     0.5973 ****
 16 O      31.752000   28.962000   24.135000 O     2 ALA    -0.5679 ****
 17 N      30.395000   30.441000   25.185000 N     3 ALA    -0.4157 ****
 18 H      29.462000   30.813000   25.118000 H     3 ALA     0.2719 ****
 19 CA     31.238000   31.053000   26.225000 C     3 ALA     0.0337 ****
 20 HA     30.615000   31.120000   27.117000 H     3 ALA     0.0823 ****
 21 CB     32.451000   30.207000   26.647000 C     3 ALA    -0.1825 ****
 22 HB1    32.921000   30.656000   27.523000 H     3 ALA     0.0603 ****
 23 HB2    32.134000   29.193000   26.891000 H     3 ALA     0.0603 ****
 24 HB3    33.187000   30.175000   25.842000 H     3 ALA     0.0603 ****
 25 C      31.546000   32.502000   25.812000 C     3 ALA     0.5973 ****
 26 O      32.615000   32.819000   25.295000 O     3 ALA    -0.5679 ****
 27 N      30.552000   33.383000   25.963000 N     4 GLY    -0.4157 ****
 28 H      29.696000   33.067000   26.389000 H     4 GLY     0.2719 ****
 29 CA     30.499000   34.612000   25.168000 C     4 GLY    -0.0252 ****
 30 HA2    29.704000   35.259000   25.535000 H     4 GLY     0.0698 ****
 31 HA3    31.448000   35.143000   25.258000 H     4 GLY     0.0698 ****
 32 C      30.230000   34.296000   23.689000 C     4 GLY     0.5973 ****
 33 O      29.407000   33.432000   23.378000 O     4 GLY    -0.5679 ****
 34 N      30.916000   34.998000   22.780000 N     5 NME    -0.4157 ****
 35 H      31.605000   35.655000   23.114000 H     5 NME     0.2719 ****
 36 CH3    30.796000   34.806000   21.336000 C     5 NME    -0.1490 ****
 37 HH31   29.754000   34.916000   21.032000 H     5 NME     0.0976 ****
 38 HH32   31.405000   35.540000   20.806000 H     5 NME     0.0976 ****
 39 HH33   31.135000   33.802000   21.071000 H     5 NME     0.0976 ****
@<TRIPOS>BOND
    1     5     6 1
    2     5     7 1
    3     2     3 1
    4     2     4 1
    5     2     5 1
    6     1     2 1
    7    15    16 1
    8    15    17 1
    9    11    12 1
   10    11    13 1
   11    11    14 1
   12     9    10 1
   13     9    11 1
   14     9    15 1
   15     7     8 1
   16     7     9 1
   17    25    26 1
   18    25    27 1
   19    21    22 1
   20    21    23 1
   21    21    24 1
   22    19    20 1
   23    19    21 1
   24    19    25 1
   25    17    18 1
   26    17    19 1
   27    32    33 1
   28    32    34 1
   29    29    30 1
   30    29    31 1
   31    29    32 1
   32    27    28 1
   33    27    29 1
   34    36    37 1
   35    36    38 1
   36    36    39 1
   37    34    35 1
   38    34    36 1
@<TRIPOS>SUBSTRUCTURE
      1  ACE              1 ****               0 ****  **** 
      2  ALA              7 ****               0 ****  **** 
      3  ALA             17 ****               0 ****  **** 
      4  GLY             27 ****               0 ****  **** 
      5  NME             34 ****               0 ****  **** 
