@<TRIPOS>MOLECULE
default_name
   39    38     5     0     1 
SMALL
USER_CHARGES
@<TRIPOS>ATOM
  1 H1     28.852000   26.868000   25.991000 H     1 ACE     0.1123 ****
  2 CH3    28.214000   27.093000   25.137000 C     1 ACE    -0.3662 ****
  3 H2     27.244000   27.438000   25.489000 H     1 ACE     0.1123 ****
  4 H3     28.093000   26.199000   24.528000 H     1 ACE     0.1123 ****
  5 C      28.863000   28.178000   24.312000 C     1 ACE     0.5972 ****
  6 O      29.939000   28.653000   24.654000 O     1 ACE    -0.5679 ****
  7 N      28.210000   28.573000   23.221000 N     2 ALA    -0.4157 ****
  8 H      27.320000   28.149000   23.016000 H     2 ALA     0.2719 ****
  9 CA     28.662000   29.655000   22.346000 C     2 ALA     0.0337 ****
 10 HA     29.739000   29.562000   22.201000 H     2 ALA     0.0823 ****
 11 CB     27.990000   29.480000   20.977000 C     2 ALA    -0.1825 ****
 12 HB1    26.905000   29.542000   21.078000 H     2 ALA     0.0603 ****
 13 HB2    28.325000   30.269000   20.302000 H     2 ALA     0.0603 ****
 14 HB3    28.258000   28.513000   20.551000 H     2 ALA     0.0603 ****
 15 C      28.384000   31.037000   22.978000 C     2 ALA     0.5973 ****
 16 O      27.312000   31.607000   22.792000 O     2 ALA    -0.5679 ****
 17 N      29.358000   31.567000   23.726000 N     3 ALA    -0.4157 ****
 18 H      30.166000   30.992000   23.892000 H     3 ALA     0.2719 ****
 19 CA     29.216000   32.790000   24.531000 C     3 ALA     0.0337 ****
 20 HA     28.705000   33.550000   23.936000 H     3 ALA     0.0823 ****
 21 CB     28.345000   32.456000   25.756000 C     3 ALA    -0.1825 ****
 22 HB1    28.830000   31.692000   26.364000 H     3 ALA     0.0603 ****
 23 HB2    28.198000   33.352000   26.360000 H     3 ALA     0.0603 ****
 24 HB3    27.366000   32.095000   25.437000 H     3 ALA     0.0603 ****
 25 C      30.562000   33.396000   24.999000 C     3 ALA     0.5973 ****
 26 O      30.574000   34.400000   25.708000 O     3 ALA    -0.5679 ****
 27 N      31.705000   32.814000   24.610000 N     4 GLY    -0.4157 ****
 28 H      31.659000   32.023000   23.990000 H     4 GLY     0.2719 ****
 29 CA     33.035000   33.332000   24.944000 C     4 GLY    -0.0252 ****
 30 HA2    33.059000   33.647000   25.988000 H     4 GLY     0.0698 ****
 31 HA3    33.774000   32.543000   24.810000 H     4 GLY     0.0698 ****
 32 C      33.433000   34.513000   24.056000 C     4 GLY     0.5973 ****
 33 O      34.012000   34.306000   22.993000 O     4 GLY    -0.5679 ****
 34 N      33.125000   35.740000   24.490000 N     5 NME    -0.4157 ****
 35 H      32.590000   35.812000   25.344000 H     5 NME     0.2719 ****
 36 CH3    33.437000   36.970000   23.764000 C     5 NME    -0.1490 ****
 37 HH31   33.076000   37.836000   24.321000 H     5 NME     0.0976 ****
 38 HH32   34.516000   37.053000   23.625000 H     5 NME     0.0976 ****
 39 HH33   32.959000   36.948000   22.783000 H     5 NME     0.0976 ****
@<TRIPOS>BOND
    1     5     6 1
    2     5     7 1
    3     2     3 1
    4     2     4 1
    5     2     5 1
    6     1     2 1
    7    15    16 1
    8    15    17 1
    9    11    12 1
   10    11    13 1
   11    11    14 1
   12     9    10 1
   13     9    11 1
   14     9    15 1
   15     7     8 1
   16     7     9 1
   17    25    26 1
   18    25    27 1
   19    21    22 1
   20    21    23 1
   21    21    24 1
   22    19    20 1
   23    19    21 1
   24    19    25 1
   25    17    18 1
   26    17    19 1
   27    32    33 1
   28    32    34 1
   29    29    30 1
   30    29    31 1
   31    29    32 1
   32    27    28 1
   33    27    29 1
   34    36    37 1
   35    36    38 1
   36    36    39 1
   37    34    35 1
   38    34    36 1
@<TRIPOS>SUBSTRUCTURE
      1  ACE              1 ****               0 ****  **** 
      2  ALA              7 ****               0 ****  **** 
      3  ALA             17 ****               0 ****  **** 
      4  GLY             27 ****               0 ****  **** 
      5  NME             34 ****               0 ****  **** 
