@<TRIPOS>MOLECULE
default_name
   39    38     5     0     1 
SMALL
USER_CHARGES
@<TRIPOS>ATOM
  1 H1     26.076000   32.181000   22.898000 H     1 ACE     0.1123 ****
  2 CH3    27.123000   32.027000   22.639000 C     1 ACE    -0.3662 ****
  3 H2     27.708000   32.893000   22.941000 H     1 ACE     0.1123 ****
  4 H3     27.216000   31.879000   21.565000 H     1 ACE     0.1123 ****
  5 C      27.633000   30.802000   23.359000 C     1 ACE     0.5972 ****
  6 O      26.924000   30.230000   24.174000 O     1 ACE    -0.5679 ****
  7 N      28.875000   30.412000   23.077000 N     2 ALA    -0.4157 ****
  8 H      29.407000   30.984000   22.434000 H     2 ALA     0.2719 ****
  9 CA     29.534000   29.225000   23.645000 C     2 ALA     0.0337 ****
 10 HA     28.763000   28.519000   23.960000 H     2 ALA     0.0823 ****
 11 CB     30.342000   28.552000   22.524000 C     2 ALA    -0.1825 ****
 12 HB1    31.144000   29.214000   22.193000 H     2 ALA     0.0603 ****
 13 HB2    30.779000   27.623000   22.894000 H     2 ALA     0.0603 ****
 14 HB3    29.690000   28.321000   21.681000 H     2 ALA     0.0603 ****
 15 C      30.374000   29.548000   24.907000 C     2 ALA     0.5973 ****
 16 O      31.492000   29.062000   25.046000 O     2 ALA    -0.5679 ****
 17 N      29.870000   30.476000   25.732000 N     3 ALA    -0.4157 ****
 18 H      28.917000   30.743000   25.541000 H     3 ALA     0.2719 ****
 19 CA     30.516000   31.218000   26.836000 C     3 ALA     0.0337 ****
 20 HA     29.723000   31.380000   27.568000 H     3 ALA     0.0823 ****
 21 CB     31.593000   30.427000   27.596000 C     3 ALA    -0.1825 ****
 22 HB1    32.495000   30.338000   26.989000 H     3 ALA     0.0603 ****
 23 HB2    31.848000   30.956000   28.515000 H     3 ALA     0.0603 ****
 24 HB3    31.222000   29.434000   27.848000 H     3 ALA     0.0603 ****
 25 C      30.927000   32.644000   26.410000 C     3 ALA     0.5973 ****
 26 O      31.217000   33.501000   27.239000 O     3 ALA    -0.5679 ****
 27 N      30.900000   32.901000   25.100000 N     4 GLY    -0.4157 ****
 28 H      30.671000   32.132000   24.487000 H     4 GLY     0.2719 ****
 29 CA     31.169000   34.176000   24.444000 C     4 GLY    -0.0252 ****
 30 HA2    30.561000   34.959000   24.899000 H     4 GLY     0.0698 ****
 31 HA3    32.221000   34.434000   24.568000 H     4 GLY     0.0698 ****
 32 C      30.844000   34.093000   22.947000 C     4 GLY     0.5973 ****
 33 O      30.358000   33.064000   22.469000 O     4 GLY    -0.5679 ****
 34 N      31.109000   35.177000   22.211000 N     5 NME    -0.4157 ****
 35 H      31.508000   35.979000   22.674000 H     5 NME     0.2719 ****
 36 CH3    30.863000   35.269000   20.772000 C     5 NME    -0.1490 ****
 37 HH31   29.799000   35.129000   20.569000 H     5 NME     0.0976 ****
 38 HH32   31.175000   36.245000   20.396000 H     5 NME     0.0976 ****
 39 HH33   31.423000   34.489000   20.251000 H     5 NME     0.0976 ****
@<TRIPOS>BOND
    1     5     6 1
    2     5     7 1
    3     2     3 1
    4     2     4 1
    5     2     5 1
    6     1     2 1
    7    15    16 1
    8    15    17 1
    9    11    12 1
   10    11    13 1
   11    11    14 1
   12     9    10 1
   13     9    11 1
   14     9    15 1
   15     7     8 1
   16     7     9 1
   17    25    26 1
   18    25    27 1
   19    21    22 1
   20    21    23 1
   21    21    24 1
   22    19    20 1
   23    19    21 1
   24    19    25 1
   25    17    18 1
   26    17    19 1
   27    32    33 1
   28    32    34 1
   29    29    30 1
   30    29    31 1
   31    29    32 1
   32    27    28 1
   33    27    29 1
   34    36    37 1
   35    36    38 1
   36    36    39 1
   37    34    35 1
   38    34    36 1
@<TRIPOS>SUBSTRUCTURE
      1  ACE              1 ****               0 ****  **** 
      2  ALA              7 ****               0 ****  **** 
      3  ALA             17 ****               0 ****  **** 
      4  GLY             27 ****               0 ****  **** 
      5  NME             34 ****               0 ****  **** 
