@<TRIPOS>MOLECULE
default_name
   39    38     5     0     1 
SMALL
USER_CHARGES
@<TRIPOS>ATOM
  1 H1     25.957000   27.622000   24.085000 H     1 ACE     0.1123 ****
  2 CH3    26.376000   28.178000   23.247000 C     1 ACE    -0.3662 ****
  3 H2     25.746000   29.037000   23.028000 H     1 ACE     0.1123 ****
  4 H3     26.438000   27.529000   22.375000 H     1 ACE     0.1123 ****
  5 C      27.761000   28.653000   23.618000 C     1 ACE     0.5972 ****
  6 O      28.230000   28.392000   24.718000 O     1 ACE    -0.5679 ****
  7 N      28.421000   29.354000   22.698000 N     2 ALA    -0.4157 ****
  8 H      27.967000   29.548000   21.822000 H     2 ALA     0.2719 ****
  9 CA     29.750000   29.923000   22.921000 C     2 ALA     0.0337 ****
 10 HA     30.384000   29.161000   23.378000 H     2 ALA     0.0823 ****
 11 CB     30.359000   30.283000   21.558000 C     2 ALA    -0.1825 ****
 12 HB1    29.744000   31.030000   21.055000 H     2 ALA     0.0603 ****
 13 HB2    31.361000   30.690000   21.703000 H     2 ALA     0.0603 ****
 14 HB3    30.428000   29.391000   20.934000 H     2 ALA     0.0603 ****
 15 C      29.692000   31.131000   23.880000 C     2 ALA     0.5973 ****
 16 O      29.423000   32.255000   23.460000 O     2 ALA    -0.5679 ****
 17 N      29.929000   30.893000   25.173000 N     3 ALA    -0.4157 ****
 18 H      30.046000   29.930000   25.452000 H     3 ALA     0.2719 ****
 19 CA     30.094000   31.912000   26.213000 C     3 ALA     0.0337 ****
 20 HA     29.110000   32.333000   26.423000 H     3 ALA     0.0823 ****
 21 CB     30.578000   31.216000   27.493000 C     3 ALA    -0.1825 ****
 22 HB1    31.554000   30.757000   27.322000 H     3 ALA     0.0603 ****
 23 HB2    30.669000   31.948000   28.296000 H     3 ALA     0.0603 ****
 24 HB3    29.865000   30.448000   27.793000 H     3 ALA     0.0603 ****
 25 C      31.019000   33.078000   25.792000 C     3 ALA     0.5973 ****
 26 O      32.237000   32.927000   25.757000 O     3 ALA    -0.5679 ****
 27 N      30.443000   34.237000   25.456000 N     4 GLY    -0.4157 ****
 28 H      29.437000   34.260000   25.399000 H     4 GLY     0.2719 ****
 29 CA     31.174000   35.467000   25.105000 C     4 GLY    -0.0252 ****
 30 HA2    30.499000   36.317000   25.197000 H     4 GLY     0.0698 ****
 31 HA3    31.987000   35.604000   25.818000 H     4 GLY     0.0698 ****
 32 C      31.790000   35.514000   23.696000 C     4 GLY     0.5973 ****
 33 O      32.167000   36.593000   23.248000 O     4 GLY    -0.5679 ****
 34 N      31.861000   34.384000   22.983000 N     5 NME    -0.4157 ****
 35 H      31.549000   33.538000   23.434000 H     5 NME     0.2719 ****
 36 CH3    32.390000   34.291000   21.625000 C     5 NME    -0.1490 ****
 37 HH31   31.901000   35.031000   20.989000 H     5 NME     0.0976 ****
 38 HH32   33.463000   34.491000   21.635000 H     5 NME     0.0976 ****
 39 HH33   32.210000   33.294000   21.221000 H     5 NME     0.0976 ****
@<TRIPOS>BOND
    1     5     6 1
    2     5     7 1
    3     2     3 1
    4     2     4 1
    5     2     5 1
    6     1     2 1
    7    15    16 1
    8    15    17 1
    9    11    12 1
   10    11    13 1
   11    11    14 1
   12     9    10 1
   13     9    11 1
   14     9    15 1
   15     7     8 1
   16     7     9 1
   17    25    26 1
   18    25    27 1
   19    21    22 1
   20    21    23 1
   21    21    24 1
   22    19    20 1
   23    19    21 1
   24    19    25 1
   25    17    18 1
   26    17    19 1
   27    32    33 1
   28    32    34 1
   29    29    30 1
   30    29    31 1
   31    29    32 1
   32    27    28 1
   33    27    29 1
   34    36    37 1
   35    36    38 1
   36    36    39 1
   37    34    35 1
   38    34    36 1
@<TRIPOS>SUBSTRUCTURE
      1  ACE              1 ****               0 ****  **** 
      2  ALA              7 ****               0 ****  **** 
      3  ALA             17 ****               0 ****  **** 
      4  GLY             27 ****               0 ****  **** 
      5  NME             34 ****               0 ****  **** 
