@<TRIPOS>MOLECULE
default_name
   39    38     5     0     1 
SMALL
USER_CHARGES
@<TRIPOS>ATOM
  1 H1     26.382000   25.535000   23.614000 H     1 ACE     0.1123 ****
  2 CH3    26.312000   26.615000   23.493000 C     1 ACE    -0.3662 ****
  3 H2     25.680000   27.030000   24.276000 H     1 ACE     0.1123 ****
  4 H3     25.894000   26.848000   22.516000 H     1 ACE     0.1123 ****
  5 C      27.696000   27.210000   23.600000 C     1 ACE     0.5972 ****
  6 O      28.664000   26.487000   23.791000 O     1 ACE    -0.5679 ****
  7 N      27.787000   28.533000   23.481000 N     2 ALA    -0.4157 ****
  8 H      26.940000   29.069000   23.362000 H     2 ALA     0.2719 ****
  9 CA     29.035000   29.290000   23.575000 C     2 ALA     0.0337 ****
 10 HA     29.702000   28.781000   24.273000 H     2 ALA     0.0823 ****
 11 CB     29.705000   29.318000   22.194000 C     2 ALA    -0.1825 ****
 12 HB1    29.056000   29.821000   21.475000 H     2 ALA     0.0603 ****
 13 HB2    30.657000   29.847000   22.249000 H     2 ALA     0.0603 ****
 14 HB3    29.893000   28.298000   21.854000 H     2 ALA     0.0603 ****
 15 C      28.783000   30.711000   24.111000 C     2 ALA     0.5973 ****
 16 O      27.665000   31.217000   24.037000 O     2 ALA    -0.5679 ****
 17 N      29.833000   31.360000   24.625000 N     3 ALA    -0.4157 ****
 18 H      30.703000   30.857000   24.693000 H     3 ALA     0.2719 ****
 19 CA     29.748000   32.671000   25.286000 C     3 ALA     0.0337 ****
 20 HA     28.955000   33.250000   24.809000 H     3 ALA     0.0823 ****
 21 CB     29.349000   32.443000   26.753000 C     3 ALA    -0.1825 ****
 22 HB1    30.130000   31.886000   27.273000 H     3 ALA     0.0603 ****
 23 HB2    29.208000   33.404000   27.251000 H     3 ALA     0.0603 ****
 24 HB3    28.411000   31.888000   26.804000 H     3 ALA     0.0603 ****
 25 C      31.038000   33.518000   25.164000 C     3 ALA     0.5973 ****
 26 O      31.204000   34.510000   25.871000 O     3 ALA    -0.5679 ****
 27 N      31.971000   33.131000   24.286000 N     4 GLY    -0.4157 ****
 28 H      31.759000   32.362000   23.671000 H     4 GLY     0.2719 ****
 29 CA     33.215000   33.869000   24.044000 C     4 GLY    -0.0252 ****
 30 HA2    33.640000   34.202000   24.991000 H     4 GLY     0.0698 ****
 31 HA3    33.937000   33.212000   23.558000 H     4 GLY     0.0698 ****
 32 C      32.995000   35.084000   23.139000 C     4 GLY     0.5973 ****
 33 O      33.090000   34.958000   21.922000 O     4 GLY    -0.5679 ****
 34 N      32.703000   36.247000   23.732000 N     5 NME    -0.4157 ****
 35 H      32.582000   36.243000   24.735000 H     5 NME     0.2719 ****
 36 CH3    32.468000   37.497000   23.013000 C     5 NME    -0.1490 ****
 37 HH31   31.629000   37.373000   22.325000 H     5 NME     0.0976 ****
 38 HH32   32.239000   38.299000   23.717000 H     5 NME     0.0976 ****
 39 HH33   33.355000   37.765000   22.437000 H     5 NME     0.0976 ****
@<TRIPOS>BOND
    1     5     6 1
    2     5     7 1
    3     2     3 1
    4     2     4 1
    5     2     5 1
    6     1     2 1
    7    15    16 1
    8    15    17 1
    9    11    12 1
   10    11    13 1
   11    11    14 1
   12     9    10 1
   13     9    11 1
   14     9    15 1
   15     7     8 1
   16     7     9 1
   17    25    26 1
   18    25    27 1
   19    21    22 1
   20    21    23 1
   21    21    24 1
   22    19    20 1
   23    19    21 1
   24    19    25 1
   25    17    18 1
   26    17    19 1
   27    32    33 1
   28    32    34 1
   29    29    30 1
   30    29    31 1
   31    29    32 1
   32    27    28 1
   33    27    29 1
   34    36    37 1
   35    36    38 1
   36    36    39 1
   37    34    35 1
   38    34    36 1
@<TRIPOS>SUBSTRUCTURE
      1  ACE              1 ****               0 ****  **** 
      2  ALA              7 ****               0 ****  **** 
      3  ALA             17 ****               0 ****  **** 
      4  GLY             27 ****               0 ****  **** 
      5  NME             34 ****               0 ****  **** 
