@<TRIPOS>MOLECULE
default_name
   39    38     5     0     1 
SMALL
USER_CHARGES
@<TRIPOS>ATOM
  1 H1     26.093000   25.629000   23.649000 H     1 ACE     0.1123 ****
  2 CH3    26.162000   26.690000   23.412000 C     1 ACE    -0.3662 ****
  3 H2     25.439000   27.246000   24.006000 H     1 ACE     0.1123 ****
  4 H3     25.967000   26.841000   22.352000 H     1 ACE     0.1123 ****
  5 C      27.556000   27.174000   23.737000 C     1 ACE     0.5972 ****
  6 O      28.387000   26.398000   24.191000 O     1 ACE    -0.5679 ****
  7 N      27.808000   28.461000   23.510000 N     2 ALA    -0.4157 ****
  8 H      27.062000   29.049000   23.169000 H     2 ALA     0.2719 ****
  9 CA     29.087000   29.117000   23.785000 C     2 ALA     0.0337 ****
 10 HA     29.541000   28.648000   24.659000 H     2 ALA     0.0823 ****
 11 CB     30.020000   28.913000   22.581000 C     2 ALA    -0.1825 ****
 12 HB1    29.586000   29.371000   21.691000 H     2 ALA     0.0603 ****
 13 HB2    30.992000   29.364000   22.780000 H     2 ALA     0.0603 ****
 14 HB3    30.161000   27.845000   22.401000 H     2 ALA     0.0603 ****
 15 C      28.887000   30.611000   24.097000 C     2 ALA     0.5973 ****
 16 O      27.868000   31.195000   23.736000 O     2 ALA    -0.5679 ****
 17 N      29.880000   31.234000   24.739000 N     3 ALA    -0.4157 ****
 18 H      30.682000   30.688000   25.011000 H     3 ALA     0.2719 ****
 19 CA     29.830000   32.628000   25.197000 C     3 ALA     0.0337 ****
 20 HA     29.055000   33.156000   24.638000 H     3 ALA     0.0823 ****
 21 CB     29.419000   32.639000   26.678000 C     3 ALA    -0.1825 ****
 22 HB1    30.176000   32.136000   27.281000 H     3 ALA     0.0603 ****
 23 HB2    29.318000   33.669000   27.022000 H     3 ALA     0.0603 ****
 24 HB3    28.460000   32.134000   26.801000 H     3 ALA     0.0603 ****
 25 C      31.150000   33.378000   24.910000 C     3 ALA     0.5973 ****
 26 O      31.721000   34.032000   25.780000 O     3 ALA    -0.5679 ****
 27 N      31.666000   33.244000   23.683000 N     4 GLY    -0.4157 ****
 28 H      31.138000   32.724000   23.000000 H     4 GLY     0.2719 ****
 29 CA     32.893000   33.912000   23.236000 C     4 GLY    -0.0252 ****
 30 HA2    33.653000   33.850000   24.016000 H     4 GLY     0.0698 ****
 31 HA3    33.275000   33.408000   22.348000 H     4 GLY     0.0698 ****
 32 C      32.658000   35.382000   22.884000 C     4 GLY     0.5973 ****
 33 O      32.360000   35.690000   21.734000 O     4 GLY    -0.5679 ****
 34 N      32.794000   36.281000   23.866000 N     5 NME    -0.4157 ****
 35 H      32.986000   35.933000   24.795000 H     5 NME     0.2719 ****
 36 CH3    32.607000   37.719000   23.692000 C     5 NME    -0.1490 ****
 37 HH31   31.596000   37.918000   23.331000 H     5 NME     0.0976 ****
 38 HH32   32.758000   38.236000   24.642000 H     5 NME     0.0976 ****
 39 HH33   33.320000   38.098000   22.958000 H     5 NME     0.0976 ****
@<TRIPOS>BOND
    1     5     6 1
    2     5     7 1
    3     2     3 1
    4     2     4 1
    5     2     5 1
    6     1     2 1
    7    15    16 1
    8    15    17 1
    9    11    12 1
   10    11    13 1
   11    11    14 1
   12     9    10 1
   13     9    11 1
   14     9    15 1
   15     7     8 1
   16     7     9 1
   17    25    26 1
   18    25    27 1
   19    21    22 1
   20    21    23 1
   21    21    24 1
   22    19    20 1
   23    19    21 1
   24    19    25 1
   25    17    18 1
   26    17    19 1
   27    32    33 1
   28    32    34 1
   29    29    30 1
   30    29    31 1
   31    29    32 1
   32    27    28 1
   33    27    29 1
   34    36    37 1
   35    36    38 1
   36    36    39 1
   37    34    35 1
   38    34    36 1
@<TRIPOS>SUBSTRUCTURE
      1  ACE              1 ****               0 ****  **** 
      2  ALA              7 ****               0 ****  **** 
      3  ALA             17 ****               0 ****  **** 
      4  GLY             27 ****               0 ****  **** 
      5  NME             34 ****               0 ****  **** 
