@<TRIPOS>MOLECULE
default_name
   39    38     5     0     1 
SMALL
USER_CHARGES
@<TRIPOS>ATOM
  1 H1     27.424000   24.906000   24.517000 H     1 ACE     0.1123 ****
  2 CH3    27.179000   25.838000   24.009000 C     1 ACE    -0.3662 ****
  3 H2     26.243000   26.232000   24.399000 H     1 ACE     0.1123 ****
  4 H3     27.090000   25.659000   22.939000 H     1 ACE     0.1123 ****
  5 C      28.285000   26.836000   24.258000 C     1 ACE     0.5972 ****
  6 O      29.253000   26.525000   24.940000 O     1 ACE    -0.5679 ****
  7 N      28.136000   28.039000   23.708000 N     2 ALA    -0.4157 ****
  8 H      27.292000   28.235000   23.190000 H     2 ALA     0.2719 ****
  9 CA     29.083000   29.144000   23.853000 C     2 ALA     0.0337 ****
 10 HA     29.548000   29.083000   24.839000 H     2 ALA     0.0823 ****
 11 CB     30.181000   29.002000   22.787000 C     2 ALA    -0.1825 ****
 12 HB1    29.740000   29.059000   21.791000 H     2 ALA     0.0603 ****
 13 HB2    30.916000   29.799000   22.899000 H     2 ALA     0.0603 ****
 14 HB3    30.685000   28.041000   22.903000 H     2 ALA     0.0603 ****
 15 C      28.368000   30.504000   23.748000 C     2 ALA     0.5973 ****
 16 O      27.257000   30.584000   23.228000 O     2 ALA    -0.5679 ****
 17 N      29.018000   31.565000   24.238000 N     3 ALA    -0.4157 ****
 18 H      29.924000   31.408000   24.648000 H     3 ALA     0.2719 ****
 19 CA     28.535000   32.948000   24.164000 C     3 ALA     0.0337 ****
 20 HA     27.588000   32.964000   23.619000 H     3 ALA     0.0823 ****
 21 CB     28.242000   33.461000   25.582000 C     3 ALA    -0.1825 ****
 22 HB1    29.142000   33.431000   26.197000 H     3 ALA     0.0603 ****
 23 HB2    27.875000   34.487000   25.531000 H     3 ALA     0.0603 ****
 24 HB3    27.475000   32.838000   26.044000 H     3 ALA     0.0603 ****
 25 C      29.494000   33.844000   23.357000 C     3 ALA     0.5973 ****
 26 O      29.225000   34.171000   22.205000 O     3 ALA    -0.5679 ****
 27 N      30.622000   34.236000   23.953000 N     4 GLY    -0.4157 ****
 28 H      30.799000   33.953000   24.907000 H     4 GLY     0.2719 ****
 29 CA     31.646000   35.070000   23.321000 C     4 GLY    -0.0252 ****
 30 HA2    31.980000   34.597000   22.397000 H     4 GLY     0.0698 ****
 31 HA3    31.218000   36.042000   23.074000 H     4 GLY     0.0698 ****
 32 C      32.857000   35.281000   24.233000 C     4 GLY     0.5973 ****
 33 O      32.894000   34.756000   25.345000 O     4 GLY    -0.5679 ****
 34 N      33.845000   36.048000   23.760000 N     5 NME    -0.4157 ****
 35 H      33.740000   36.442000   22.837000 H     5 NME     0.2719 ****
 36 CH3    35.070000   36.349000   24.500000 C     5 NME    -0.1490 ****
 37 HH31   34.821000   36.853000   25.436000 H     5 NME     0.0976 ****
 38 HH32   35.597000   35.422000   24.734000 H     5 NME     0.0976 ****
 39 HH33   35.722000   36.993000   23.908000 H     5 NME     0.0976 ****
@<TRIPOS>BOND
    1     5     6 1
    2     5     7 1
    3     2     3 1
    4     2     4 1
    5     2     5 1
    6     1     2 1
    7    15    16 1
    8    15    17 1
    9    11    12 1
   10    11    13 1
   11    11    14 1
   12     9    10 1
   13     9    11 1
   14     9    15 1
   15     7     8 1
   16     7     9 1
   17    25    26 1
   18    25    27 1
   19    21    22 1
   20    21    23 1
   21    21    24 1
   22    19    20 1
   23    19    21 1
   24    19    25 1
   25    17    18 1
   26    17    19 1
   27    32    33 1
   28    32    34 1
   29    29    30 1
   30    29    31 1
   31    29    32 1
   32    27    28 1
   33    27    29 1
   34    36    37 1
   35    36    38 1
   36    36    39 1
   37    34    35 1
   38    34    36 1
@<TRIPOS>SUBSTRUCTURE
      1  ACE              1 ****               0 ****  **** 
      2  ALA              7 ****               0 ****  **** 
      3  ALA             17 ****               0 ****  **** 
      4  GLY             27 ****               0 ****  **** 
      5  NME             34 ****               0 ****  **** 
