@<TRIPOS>MOLECULE
default_name
   39    38     5     0     1 
SMALL
USER_CHARGES
@<TRIPOS>ATOM
  1 H1     26.949000   24.945000   25.126000 H     1 ACE     0.1123 ****
  2 CH3    26.678000   25.914000   24.709000 C     1 ACE    -0.3662 ****
  3 H2     26.081000   26.469000   25.430000 H     1 ACE     0.1123 ****
  4 H3     26.113000   25.772000   23.790000 H     1 ACE     0.1123 ****
  5 C      27.940000   26.687000   24.404000 C     1 ACE     0.5972 ****
  6 O      29.035000   26.191000   24.634000 O     1 ACE    -0.5679 ****
  7 N      27.782000   27.905000   23.891000 N     2 ALA    -0.4157 ****
  8 H      26.847000   28.261000   23.764000 H     2 ALA     0.2719 ****
  9 CA     28.877000   28.813000   23.549000 C     2 ALA     0.0337 ****
 10 HA     29.702000   28.648000   24.244000 H     2 ALA     0.0823 ****
 11 CB     29.365000   28.492000   22.129000 C     2 ALA    -0.1825 ****
 12 HB1    28.556000   28.645000   21.413000 H     2 ALA     0.0603 ****
 13 HB2    30.201000   29.141000   21.865000 H     2 ALA     0.0603 ****
 14 HB3    29.698000   27.454000   22.078000 H     2 ALA     0.0603 ****
 15 C      28.437000   30.283000   23.675000 C     2 ALA     0.5973 ****
 16 O      27.243000   30.581000   23.667000 O     2 ALA    -0.5679 ****
 17 N      29.406000   31.197000   23.781000 N     3 ALA    -0.4157 ****
 18 H      30.361000   30.879000   23.730000 H     3 ALA     0.2719 ****
 19 CA     29.179000   32.644000   23.800000 C     3 ALA     0.0337 ****
 20 HA     28.303000   32.870000   23.190000 H     3 ALA     0.0823 ****
 21 CB     28.865000   33.075000   25.246000 C     3 ALA    -0.1825 ****
 22 HB1    29.705000   32.847000   25.904000 H     3 ALA     0.0603 ****
 23 HB2    28.652000   34.144000   25.279000 H     3 ALA     0.0603 ****
 24 HB3    27.983000   32.540000   25.603000 H     3 ALA     0.0603 ****
 25 C      30.367000   33.387000   23.147000 C     3 ALA     0.5973 ****
 26 O      30.677000   33.137000   21.986000 O     3 ALA    -0.5679 ****
 27 N      31.068000   34.255000   23.882000 N     4 GLY    -0.4157 ****
 28 H      30.792000   34.420000   24.840000 H     4 GLY     0.2719 ****
 29 CA     32.225000   35.009000   23.395000 C     4 GLY    -0.0252 ****
 30 HA2    32.994000   34.314000   23.057000 H     4 GLY     0.0698 ****
 31 HA3    31.923000   35.626000   22.549000 H     4 GLY     0.0698 ****
 32 C      32.821000   35.914000   24.477000 C     4 GLY     0.5973 ****
 33 O      32.335000   35.934000   25.607000 O     4 GLY    -0.5679 ****
 34 N      33.874000   36.660000   24.127000 N     5 NME    -0.4157 ****
 35 H      34.214000   36.588000   23.181000 H     5 NME     0.2719 ****
 36 CH3    34.562000   37.577000   25.036000 C     5 NME    -0.1490 ****
 37 HH31   33.861000   38.331000   25.400000 H     5 NME     0.0976 ****
 38 HH32   34.951000   37.023000   25.893000 H     5 NME     0.0976 ****
 39 HH33   35.388000   38.072000   24.523000 H     5 NME     0.0976 ****
@<TRIPOS>BOND
    1     5     6 1
    2     5     7 1
    3     2     3 1
    4     2     4 1
    5     2     5 1
    6     1     2 1
    7    15    16 1
    8    15    17 1
    9    11    12 1
   10    11    13 1
   11    11    14 1
   12     9    10 1
   13     9    11 1
   14     9    15 1
   15     7     8 1
   16     7     9 1
   17    25    26 1
   18    25    27 1
   19    21    22 1
   20    21    23 1
   21    21    24 1
   22    19    20 1
   23    19    21 1
   24    19    25 1
   25    17    18 1
   26    17    19 1
   27    32    33 1
   28    32    34 1
   29    29    30 1
   30    29    31 1
   31    29    32 1
   32    27    28 1
   33    27    29 1
   34    36    37 1
   35    36    38 1
   36    36    39 1
   37    34    35 1
   38    34    36 1
@<TRIPOS>SUBSTRUCTURE
      1  ACE              1 ****               0 ****  **** 
      2  ALA              7 ****               0 ****  **** 
      3  ALA             17 ****               0 ****  **** 
      4  GLY             27 ****               0 ****  **** 
      5  NME             34 ****               0 ****  **** 
