@<TRIPOS>MOLECULE
default_name
   39    38     5     0     1 
SMALL
USER_CHARGES
@<TRIPOS>ATOM
  1 H1     25.152000   29.711000   23.510000 H     1 ACE     0.1123 ****
  2 CH3    26.032000   29.741000   22.868000 C     1 ACE    -0.3662 ****
  3 H2     26.243000   30.772000   22.587000 H     1 ACE     0.1123 ****
  4 H3     25.849000   29.143000   21.977000 H     1 ACE     0.1123 ****
  5 C      27.208000   29.169000   23.622000 C     1 ACE     0.5972 ****
  6 O      27.067000   28.769000   24.768000 O     1 ACE    -0.5679 ****
  7 N      28.376000   29.154000   22.982000 N     2 ALA    -0.4157 ****
  8 H      28.399000   29.504000   22.039000 H     2 ALA     0.2719 ****
  9 CA     29.618000   28.570000   23.510000 C     2 ALA     0.0337 ****
 10 HA     29.351000   27.673000   24.071000 H     2 ALA     0.0823 ****
 11 CB     30.469000   28.127000   22.309000 C     2 ALA    -0.1825 ****
 12 HB1    30.797000   28.999000   21.741000 H     2 ALA     0.0603 ****
 13 HB2    31.348000   27.586000   22.661000 H     2 ALA     0.0603 ****
 14 HB3    29.890000   27.465000   21.663000 H     2 ALA     0.0603 ****
 15 C      30.408000   29.470000   24.498000 C     2 ALA     0.5973 ****
 16 O      31.597000   29.249000   24.693000 O     2 ALA    -0.5679 ****
 17 N      29.762000   30.488000   25.084000 N     3 ALA    -0.4157 ****
 18 H      28.777000   30.553000   24.898000 H     3 ALA     0.2719 ****
 19 CA     30.318000   31.481000   26.013000 C     3 ALA     0.0337 ****
 20 HA     29.509000   32.174000   26.247000 H     3 ALA     0.0823 ****
 21 CB     30.684000   30.805000   27.344000 C     3 ALA    -0.1825 ****
 22 HB1    31.511000   30.109000   27.197000 H     3 ALA     0.0603 ****
 23 HB2    30.992000   31.562000   28.066000 H     3 ALA     0.0603 ****
 24 HB3    29.824000   30.263000   27.738000 H     3 ALA     0.0603 ****
 25 C      31.454000   32.337000   25.408000 C     3 ALA     0.5973 ****
 26 O      32.639000   32.041000   25.530000 O     3 ALA    -0.5679 ****
 27 N      31.084000   33.471000   24.807000 N     4 GLY    -0.4157 ****
 28 H      30.102000   33.694000   24.730000 H     4 GLY     0.2719 ****
 29 CA     32.017000   34.416000   24.192000 C     4 GLY    -0.0252 ****
 30 HA2    32.656000   34.845000   24.965000 H     4 GLY     0.0698 ****
 31 HA3    32.650000   33.887000   23.479000 H     4 GLY     0.0698 ****
 32 C      31.295000   35.551000   23.462000 C     4 GLY     0.5973 ****
 33 O      30.065000   35.580000   23.419000 O     4 GLY    -0.5679 ****
 34 N      32.063000   36.484000   22.888000 N     5 NME    -0.4157 ****
 35 H      33.063000   36.387000   22.968000 H     5 NME     0.2719 ****
 36 CH3    31.539000   37.635000   22.154000 C     5 NME    -0.1490 ****
 37 HH31   30.936000   37.291000   21.311000 H     5 NME     0.0976 ****
 38 HH32   30.905000   38.234000   22.812000 H     5 NME     0.0976 ****
 39 HH33   32.358000   38.253000   21.783000 H     5 NME     0.0976 ****
@<TRIPOS>BOND
    1     5     6 1
    2     5     7 1
    3     2     3 1
    4     2     4 1
    5     2     5 1
    6     1     2 1
    7    15    16 1
    8    15    17 1
    9    11    12 1
   10    11    13 1
   11    11    14 1
   12     9    10 1
   13     9    11 1
   14     9    15 1
   15     7     8 1
   16     7     9 1
   17    25    26 1
   18    25    27 1
   19    21    22 1
   20    21    23 1
   21    21    24 1
   22    19    20 1
   23    19    21 1
   24    19    25 1
   25    17    18 1
   26    17    19 1
   27    32    33 1
   28    32    34 1
   29    29    30 1
   30    29    31 1
   31    29    32 1
   32    27    28 1
   33    27    29 1
   34    36    37 1
   35    36    38 1
   36    36    39 1
   37    34    35 1
   38    34    36 1
@<TRIPOS>SUBSTRUCTURE
      1  ACE              1 ****               0 ****  **** 
      2  ALA              7 ****               0 ****  **** 
      3  ALA             17 ****               0 ****  **** 
      4  GLY             27 ****               0 ****  **** 
      5  NME             34 ****               0 ****  **** 
