@<TRIPOS>MOLECULE
default_name
   39    38     5     0     1 
SMALL
USER_CHARGES
@<TRIPOS>ATOM
  1 H1     25.034000   28.123000   23.551000 H     1 ACE     0.1123 ****
  2 CH3    25.879000   28.122000   22.864000 C     1 ACE    -0.3662 ****
  3 H2     25.747000   28.909000   22.123000 H     1 ACE     0.1123 ****
  4 H3     25.948000   27.154000   22.372000 H     1 ACE     0.1123 ****
  5 C      27.146000   28.379000   23.646000 C     1 ACE     0.5972 ****
  6 O      27.099000   28.548000   24.858000 O     1 ACE    -0.5679 ****
  7 N      28.282000   28.409000   22.952000 N     2 ALA    -0.4157 ****
  8 H      28.240000   28.286000   21.954000 H     2 ALA     0.2719 ****
  9 CA     29.584000   28.709000   23.546000 C     2 ALA     0.0337 ****
 10 HA     29.676000   28.166000   24.488000 H     2 ALA     0.0823 ****
 11 CB     30.678000   28.193000   22.600000 C     2 ALA    -0.1825 ****
 12 HB1    30.609000   28.695000   21.634000 H     2 ALA     0.0603 ****
 13 HB2    31.658000   28.398000   23.033000 H     2 ALA     0.0603 ****
 14 HB3    30.571000   27.117000   22.458000 H     2 ALA     0.0603 ****
 15 C      29.727000   30.215000   23.852000 C     2 ALA     0.5973 ****
 16 O      30.087000   31.001000   22.976000 O     2 ALA    -0.5679 ****
 17 N      29.391000   30.615000   25.084000 N     3 ALA    -0.4157 ****
 18 H      28.997000   29.918000   25.697000 H     3 ALA     0.2719 ****
 19 CA     29.718000   31.911000   25.685000 C     3 ALA     0.0337 ****
 20 HA     28.931000   32.608000   25.392000 H     3 ALA     0.0823 ****
 21 CB     29.666000   31.770000   27.211000 C     3 ALA    -0.1825 ****
 22 HB1    30.432000   31.068000   27.545000 H     3 ALA     0.0603 ****
 23 HB2    29.849000   32.740000   27.676000 H     3 ALA     0.0603 ****
 24 HB3    28.684000   31.409000   27.519000 H     3 ALA     0.0603 ****
 25 C      31.061000   32.509000   25.207000 C     3 ALA     0.5973 ****
 26 O      32.111000   31.884000   25.354000 O     3 ALA    -0.5679 ****
 27 N      31.037000   33.740000   24.691000 N     4 GLY    -0.4157 ****
 28 H      30.153000   34.218000   24.591000 H     4 GLY     0.2719 ****
 29 CA     32.217000   34.431000   24.173000 C     4 GLY    -0.0252 ****
 30 HA2    32.962000   34.520000   24.964000 H     4 GLY     0.0698 ****
 31 HA3    32.646000   33.842000   23.361000 H     4 GLY     0.0698 ****
 32 C      31.891000   35.831000   23.645000 C     4 GLY     0.5973 ****
 33 O      30.763000   36.303000   23.780000 O     4 GLY    -0.5679 ****
 34 N      32.885000   36.494000   23.044000 N     5 NME    -0.4157 ****
 35 H      33.780000   36.036000   22.970000 H     5 NME     0.2719 ****
 36 CH3    32.748000   37.837000   22.483000 C     5 NME    -0.1490 ****
 37 HH31   32.448000   38.535000   23.266000 H     5 NME     0.0976 ****
 38 HH32   33.694000   38.165000   22.050000 H     5 NME     0.0976 ****
 39 HH33   31.979000   37.834000   21.707000 H     5 NME     0.0976 ****
@<TRIPOS>BOND
    1     5     6 1
    2     5     7 1
    3     2     3 1
    4     2     4 1
    5     2     5 1
    6     1     2 1
    7    15    16 1
    8    15    17 1
    9    11    12 1
   10    11    13 1
   11    11    14 1
   12     9    10 1
   13     9    11 1
   14     9    15 1
   15     7     8 1
   16     7     9 1
   17    25    26 1
   18    25    27 1
   19    21    22 1
   20    21    23 1
   21    21    24 1
   22    19    20 1
   23    19    21 1
   24    19    25 1
   25    17    18 1
   26    17    19 1
   27    32    33 1
   28    32    34 1
   29    29    30 1
   30    29    31 1
   31    29    32 1
   32    27    28 1
   33    27    29 1
   34    36    37 1
   35    36    38 1
   36    36    39 1
   37    34    35 1
   38    34    36 1
@<TRIPOS>SUBSTRUCTURE
      1  ACE              1 ****               0 ****  **** 
      2  ALA              7 ****               0 ****  **** 
      3  ALA             17 ****               0 ****  **** 
      4  GLY             27 ****               0 ****  **** 
      5  NME             34 ****               0 ****  **** 
