@<TRIPOS>MOLECULE
default_name
   39    38     5     0     1 
SMALL
USER_CHARGES
@<TRIPOS>ATOM
  1 H1     26.403000   32.538000   23.703000 H     1 ACE     0.1123 ****
  2 CH3    26.932000   31.869000   23.025000 C     1 ACE    -0.3662 ****
  3 H2     27.655000   32.440000   22.446000 H     1 ACE     0.1123 ****
  4 H3     26.220000   31.391000   22.356000 H     1 ACE     0.1123 ****
  5 C      27.640000   30.809000   23.834000 C     1 ACE     0.5972 ****
  6 O      27.398000   30.682000   25.025000 O     1 ACE    -0.5679 ****
  7 N      28.528000   30.053000   23.190000 N     2 ALA    -0.4157 ****
  8 H      28.682000   30.247000   22.214000 H     2 ALA     0.2719 ****
  9 CA     29.158000   28.843000   23.744000 C     2 ALA     0.0337 ****
 10 HA     28.372000   28.244000   24.208000 H     2 ALA     0.0823 ****
 11 CB     29.722000   28.040000   22.562000 C     2 ALA    -0.1825 ****
 12 HB1    30.531000   28.595000   22.084000 H     2 ALA     0.0603 ****
 13 HB2    30.112000   27.086000   22.920000 H     2 ALA     0.0603 ****
 14 HB3    28.935000   27.841000   21.834000 H     2 ALA     0.0603 ****
 15 C      30.230000   29.063000   24.844000 C     2 ALA     0.5973 ****
 16 O      30.804000   28.083000   25.307000 O     2 ALA    -0.5679 ****
 17 N      30.475000   30.323000   25.235000 N     3 ALA    -0.4157 ****
 18 H      29.851000   30.993000   24.824000 H     3 ALA     0.2719 ****
 19 CA     31.451000   30.872000   26.208000 C     3 ALA     0.0337 ****
 20 HA     30.992000   30.885000   27.197000 H     3 ALA     0.0823 ****
 21 CB     32.739000   30.020000   26.269000 C     3 ALA    -0.1825 ****
 22 HB1    33.152000   29.886000   25.268000 H     3 ALA     0.0603 ****
 23 HB2    33.485000   30.504000   26.900000 H     3 ALA     0.0603 ****
 24 HB3    32.533000   29.049000   26.717000 H     3 ALA     0.0603 ****
 25 C      31.852000   32.333000   25.854000 C     3 ALA     0.5973 ****
 26 O      32.830000   32.868000   26.370000 O     3 ALA    -0.5679 ****
 27 N      31.090000   33.011000   24.989000 N     4 GLY    -0.4157 ****
 28 H      30.292000   32.560000   24.574000 H     4 GLY     0.2719 ****
 29 CA     31.363000   34.372000   24.525000 C     4 GLY    -0.0252 ****
 30 HA2    31.162000   35.076000   25.333000 H     4 GLY     0.0698 ****
 31 HA3    32.413000   34.459000   24.243000 H     4 GLY     0.0698 ****
 32 C      30.497000   34.739000   23.317000 C     4 GLY     0.5973 ****
 33 O      29.733000   33.908000   22.827000 O     4 GLY    -0.5679 ****
 34 N      30.619000   35.983000   22.841000 N     5 NME    -0.4157 ****
 35 H      31.270000   36.604000   23.298000 H     5 NME     0.2719 ****
 36 CH3    29.868000   36.498000   21.697000 C     5 NME    -0.1490 ****
 37 HH31   28.797000   36.439000   21.902000 H     5 NME     0.0976 ****
 38 HH32   30.139000   37.536000   21.502000 H     5 NME     0.0976 ****
 39 HH33   30.086000   35.898000   20.811000 H     5 NME     0.0976 ****
@<TRIPOS>BOND
    1     5     6 1
    2     5     7 1
    3     2     3 1
    4     2     4 1
    5     2     5 1
    6     1     2 1
    7    15    16 1
    8    15    17 1
    9    11    12 1
   10    11    13 1
   11    11    14 1
   12     9    10 1
   13     9    11 1
   14     9    15 1
   15     7     8 1
   16     7     9 1
   17    25    26 1
   18    25    27 1
   19    21    22 1
   20    21    23 1
   21    21    24 1
   22    19    20 1
   23    19    21 1
   24    19    25 1
   25    17    18 1
   26    17    19 1
   27    32    33 1
   28    32    34 1
   29    29    30 1
   30    29    31 1
   31    29    32 1
   32    27    28 1
   33    27    29 1
   34    36    37 1
   35    36    38 1
   36    36    39 1
   37    34    35 1
   38    34    36 1
@<TRIPOS>SUBSTRUCTURE
      1  ACE              1 ****               0 ****  **** 
      2  ALA              7 ****               0 ****  **** 
      3  ALA             17 ****               0 ****  **** 
      4  GLY             27 ****               0 ****  **** 
      5  NME             34 ****               0 ****  **** 
