@<TRIPOS>MOLECULE
default_name
   39    38     5     0     1 
SMALL
USER_CHARGES
@<TRIPOS>ATOM
  1 H1     25.166000   30.988000   24.219000 H     1 ACE     0.1123 ****
  2 CH3    25.871000   30.999000   23.389000 C     1 ACE    -0.3662 ****
  3 H2     26.138000   32.028000   23.154000 H     1 ACE     0.1123 ****
  4 H3     25.419000   30.522000   22.521000 H     1 ACE     0.1123 ****
  5 C      27.113000   30.240000   23.791000 C     1 ACE     0.5972 ****
  6 O      27.200000   29.746000   24.908000 O     1 ACE    -0.5679 ****
  7 N      28.079000   30.142000   22.880000 N     2 ALA    -0.4157 ****
  8 H      27.938000   30.581000   21.985000 H     2 ALA     0.2719 ****
  9 CA     29.372000   29.505000   23.131000 C     2 ALA     0.0337 ****
 10 HA     29.211000   28.603000   23.725000 H     2 ALA     0.0823 ****
 11 CB     29.965000   29.075000   21.781000 C     2 ALA    -0.1825 ****
 12 HB1    30.121000   29.947000   21.142000 H     2 ALA     0.0603 ****
 13 HB2    30.925000   28.583000   21.944000 H     2 ALA     0.0603 ****
 14 HB3    29.291000   28.378000   21.283000 H     2 ALA     0.0603 ****
 15 C      30.306000   30.439000   23.930000 C     2 ALA     0.5973 ****
 16 O      31.075000   31.198000   23.346000 O     2 ALA    -0.5679 ****
 17 N      30.240000   30.366000   25.265000 N     3 ALA    -0.4157 ****
 18 H      29.565000   29.717000   25.640000 H     3 ALA     0.2719 ****
 19 CA     30.870000   31.261000   26.246000 C     3 ALA     0.0337 ****
 20 HA     30.201000   31.304000   27.106000 H     3 ALA     0.0823 ****
 21 CB     32.175000   30.611000   26.736000 C     3 ALA    -0.1825 ****
 22 HB1    32.869000   30.478000   25.905000 H     3 ALA     0.0603 ****
 23 HB2    32.637000   31.239000   27.499000 H     3 ALA     0.0603 ****
 24 HB3    31.957000   29.635000   27.173000 H     3 ALA     0.0603 ****
 25 C      31.048000   32.736000   25.803000 C     3 ALA     0.5973 ****
 26 O      30.144000   33.539000   26.013000 O     3 ALA    -0.5679 ****
 27 N      32.194000   33.109000   25.220000 N     4 GLY    -0.4157 ****
 28 H      32.846000   32.379000   24.980000 H     4 GLY     0.2719 ****
 29 CA     32.554000   34.493000   24.871000 C     4 GLY    -0.0252 ****
 30 HA2    32.300000   35.140000   25.712000 H     4 GLY     0.0698 ****
 31 HA3    33.632000   34.548000   24.720000 H     4 GLY     0.0698 ****
 32 C      31.880000   35.086000   23.623000 C     4 GLY     0.5973 ****
 33 O      32.332000   36.120000   23.139000 O     4 GLY    -0.5679 ****
 34 N      30.844000   34.440000   23.076000 N     5 NME    -0.4157 ****
 35 H      30.523000   33.609000   23.547000 H     5 NME     0.2719 ****
 36 CH3    30.134000   34.878000   21.877000 C     5 NME    -0.1490 ****
 37 HH31   29.391000   34.134000   21.589000 H     5 NME     0.0976 ****
 38 HH32   29.638000   35.830000   22.073000 H     5 NME     0.0976 ****
 39 HH33   30.845000   35.015000   21.060000 H     5 NME     0.0976 ****
@<TRIPOS>BOND
    1     5     6 1
    2     5     7 1
    3     2     3 1
    4     2     4 1
    5     2     5 1
    6     1     2 1
    7    15    16 1
    8    15    17 1
    9    11    12 1
   10    11    13 1
   11    11    14 1
   12     9    10 1
   13     9    11 1
   14     9    15 1
   15     7     8 1
   16     7     9 1
   17    25    26 1
   18    25    27 1
   19    21    22 1
   20    21    23 1
   21    21    24 1
   22    19    20 1
   23    19    21 1
   24    19    25 1
   25    17    18 1
   26    17    19 1
   27    32    33 1
   28    32    34 1
   29    29    30 1
   30    29    31 1
   31    29    32 1
   32    27    28 1
   33    27    29 1
   34    36    37 1
   35    36    38 1
   36    36    39 1
   37    34    35 1
   38    34    36 1
@<TRIPOS>SUBSTRUCTURE
      1  ACE              1 ****               0 ****  **** 
      2  ALA              7 ****               0 ****  **** 
      3  ALA             17 ****               0 ****  **** 
      4  GLY             27 ****               0 ****  **** 
      5  NME             34 ****               0 ****  **** 
