@<TRIPOS>MOLECULE
default_name
   39    38     5     0     1 
SMALL
USER_CHARGES
@<TRIPOS>ATOM
  1 H1     25.867000   26.515000   22.450000 H     1 ACE     0.1123 ****
  2 CH3    26.127000   27.572000   22.424000 C     1 ACE    -0.3662 ****
  3 H2     25.361000   28.150000   22.938000 H     1 ACE     0.1123 ****
  4 H3     26.212000   27.902000   21.391000 H     1 ACE     0.1123 ****
  5 C      27.453000   27.767000   23.122000 C     1 ACE     0.5972 ****
  6 O      28.045000   26.808000   23.600000 O     1 ACE    -0.5679 ****
  7 N      27.915000   29.014000   23.185000 N     2 ALA    -0.4157 ****
  8 H      27.355000   29.760000   22.801000 H     2 ALA     0.2719 ****
  9 CA     29.168000   29.402000   23.833000 C     2 ALA     0.0337 ****
 10 HA     29.346000   28.736000   24.679000 H     2 ALA     0.0823 ****
 11 CB     30.319000   29.235000   22.830000 C     2 ALA    -0.1825 ****
 12 HB1    30.166000   29.895000   21.974000 H     2 ALA     0.0603 ****
 13 HB2    31.270000   29.478000   23.305000 H     2 ALA     0.0603 ****
 14 HB3    30.358000   28.201000   22.482000 H     2 ALA     0.0603 ****
 15 C      29.092000   30.842000   24.371000 C     2 ALA     0.5973 ****
 16 O      28.259000   31.631000   23.931000 O     2 ALA    -0.5679 ****
 17 N      29.991000   31.192000   25.297000 N     3 ALA    -0.4157 ****
 18 H      30.627000   30.485000   25.628000 H     3 ALA     0.2719 ****
 19 CA     30.010000   32.494000   25.980000 C     3 ALA     0.0337 ****
 20 HA     29.071000   33.015000   25.786000 H     3 ALA     0.0823 ****
 21 CB     30.088000   32.229000   27.490000 C     3 ALA    -0.1825 ****
 22 HB1    31.027000   31.733000   27.738000 H     3 ALA     0.0603 ****
 23 HB2    30.035000   33.176000   28.030000 H     3 ALA     0.0603 ****
 24 HB3    29.251000   31.603000   27.802000 H     3 ALA     0.0603 ****
 25 C      31.137000   33.439000   25.503000 C     3 ALA     0.5973 ****
 26 O      31.244000   34.564000   25.985000 O     3 ALA    -0.5679 ****
 27 N      31.991000   32.995000   24.573000 N     4 GLY    -0.4157 ****
 28 H      31.823000   32.087000   24.173000 H     4 GLY     0.2719 ****
 29 CA     33.066000   33.806000   23.992000 C     4 GLY    -0.0252 ****
 30 HA2    33.529000   34.419000   24.765000 H     4 GLY     0.0698 ****
 31 HA3    33.830000   33.148000   23.576000 H     4 GLY     0.0698 ****
 32 C      32.560000   34.716000   22.871000 C     4 GLY     0.5973 ****
 33 O      32.620000   34.333000   21.706000 O     4 GLY    -0.5679 ****
 34 N      32.063000   35.907000   23.221000 N     5 NME    -0.4157 ****
 35 H      32.009000   36.121000   24.207000 H     5 NME     0.2719 ****
 36 CH3    31.532000   36.885000   22.274000 C     5 NME    -0.1490 ****
 37 HH31   30.693000   36.448000   21.727000 H     5 NME     0.0976 ****
 38 HH32   31.191000   37.775000   22.803000 H     5 NME     0.0976 ****
 39 HH33   32.307000   37.164000   21.558000 H     5 NME     0.0976 ****
@<TRIPOS>BOND
    1     5     6 1
    2     5     7 1
    3     2     3 1
    4     2     4 1
    5     2     5 1
    6     1     2 1
    7    15    16 1
    8    15    17 1
    9    11    12 1
   10    11    13 1
   11    11    14 1
   12     9    10 1
   13     9    11 1
   14     9    15 1
   15     7     8 1
   16     7     9 1
   17    25    26 1
   18    25    27 1
   19    21    22 1
   20    21    23 1
   21    21    24 1
   22    19    20 1
   23    19    21 1
   24    19    25 1
   25    17    18 1
   26    17    19 1
   27    32    33 1
   28    32    34 1
   29    29    30 1
   30    29    31 1
   31    29    32 1
   32    27    28 1
   33    27    29 1
   34    36    37 1
   35    36    38 1
   36    36    39 1
   37    34    35 1
   38    34    36 1
@<TRIPOS>SUBSTRUCTURE
      1  ACE              1 ****               0 ****  **** 
      2  ALA              7 ****               0 ****  **** 
      3  ALA             17 ****               0 ****  **** 
      4  GLY             27 ****               0 ****  **** 
      5  NME             34 ****               0 ****  **** 
