@<TRIPOS>MOLECULE
default_name
   39    38     5     0     1 
SMALL
USER_CHARGES
@<TRIPOS>ATOM
  1 H1     26.018000   31.711000   23.285000 H     1 ACE     0.1123 ****
  2 CH3    26.940000   31.535000   22.733000 C     1 ACE    -0.3662 ****
  3 H2     27.581000   32.412000   22.813000 H     1 ACE     0.1123 ****
  4 H3     26.708000   31.337000   21.688000 H     1 ACE     0.1123 ****
  5 C      27.648000   30.342000   23.327000 C     1 ACE     0.5972 ****
  6 O      27.181000   29.771000   24.303000 O     1 ACE    -0.5679 ****
  7 N      28.794000   29.981000   22.753000 N     2 ALA    -0.4157 ****
  8 H      29.116000   30.521000   21.967000 H     2 ALA     0.2719 ****
  9 CA     29.643000   28.862000   23.191000 C     2 ALA     0.0337 ****
 10 HA     28.992000   28.075000   23.577000 H     2 ALA     0.0823 ****
 11 CB     30.361000   28.306000   21.952000 C     2 ALA    -0.1825 ****
 12 HB1    31.057000   29.049000   21.560000 H     2 ALA     0.0603 ****
 13 HB2    30.919000   27.409000   22.223000 H     2 ALA     0.0603 ****
 14 HB3    29.633000   28.045000   21.184000 H     2 ALA     0.0603 ****
 15 C      30.621000   29.219000   24.343000 C     2 ALA     0.5973 ****
 16 O      31.644000   28.557000   24.497000 O     2 ALA    -0.5679 ****
 17 N      30.301000   30.280000   25.098000 N     3 ALA    -0.4157 ****
 18 H      29.408000   30.688000   24.879000 H     3 ALA     0.2719 ****
 19 CA     31.107000   31.055000   26.053000 C     3 ALA     0.0337 ****
 20 HA     30.419000   31.304000   26.861000 H     3 ALA     0.0823 ****
 21 CB     32.244000   30.275000   26.733000 C     3 ALA    -0.1825 ****
 22 HB1    32.662000   30.869000   27.545000 H     3 ALA     0.0603 ****
 23 HB2    31.864000   29.336000   27.136000 H     3 ALA     0.0603 ****
 24 HB3    33.036000   30.067000   26.012000 H     3 ALA     0.0603 ****
 25 C      31.532000   32.395000   25.427000 C     3 ALA     0.5973 ****
 26 O      32.203000   32.431000   24.398000 O     3 ALA    -0.5679 ****
 27 N      31.096000   33.511000   26.020000 N     4 GLY    -0.4157 ****
 28 H      30.524000   33.427000   26.844000 H     4 GLY     0.2719 ****
 29 CA     31.162000   34.817000   25.359000 C     4 GLY    -0.0252 ****
 30 HA2    30.869000   35.601000   26.057000 H     4 GLY     0.0698 ****
 31 HA3    32.189000   35.004000   25.041000 H     4 GLY     0.0698 ****
 32 C      30.240000   34.889000   24.132000 C     4 GLY     0.5973 ****
 33 O      29.181000   34.261000   24.108000 O     4 GLY    -0.5679 ****
 34 N      30.638000   35.667000   23.119000 N     5 NME    -0.4157 ****
 35 H      31.532000   36.125000   23.199000 H     5 NME     0.2719 ****
 36 CH3    29.883000   35.846000   21.880000 C     5 NME    -0.1490 ****
 37 HH31   28.869000   36.178000   22.110000 H     5 NME     0.0976 ****
 38 HH32   30.369000   36.587000   21.244000 H     5 NME     0.0976 ****
 39 HH33   29.826000   34.896000   21.345000 H     5 NME     0.0976 ****
@<TRIPOS>BOND
    1     5     6 1
    2     5     7 1
    3     2     3 1
    4     2     4 1
    5     2     5 1
    6     1     2 1
    7    15    16 1
    8    15    17 1
    9    11    12 1
   10    11    13 1
   11    11    14 1
   12     9    10 1
   13     9    11 1
   14     9    15 1
   15     7     8 1
   16     7     9 1
   17    25    26 1
   18    25    27 1
   19    21    22 1
   20    21    23 1
   21    21    24 1
   22    19    20 1
   23    19    21 1
   24    19    25 1
   25    17    18 1
   26    17    19 1
   27    32    33 1
   28    32    34 1
   29    29    30 1
   30    29    31 1
   31    29    32 1
   32    27    28 1
   33    27    29 1
   34    36    37 1
   35    36    38 1
   36    36    39 1
   37    34    35 1
   38    34    36 1
@<TRIPOS>SUBSTRUCTURE
      1  ACE              1 ****               0 ****  **** 
      2  ALA              7 ****               0 ****  **** 
      3  ALA             17 ****               0 ****  **** 
      4  GLY             27 ****               0 ****  **** 
      5  NME             34 ****               0 ****  **** 
