@<TRIPOS>MOLECULE
default_name
   39    38     5     0     1 
SMALL
USER_CHARGES
@<TRIPOS>ATOM
  1 H1     26.404000   24.907000   24.237000 H     1 ACE     0.1123 ****
  2 CH3    26.295000   25.940000   23.908000 C     1 ACE    -0.3662 ****
  3 H2     25.575000   26.452000   24.543000 H     1 ACE     0.1123 ****
  4 H3     25.959000   25.961000   22.873000 H     1 ACE     0.1123 ****
  5 C      27.635000   26.631000   24.012000 C     1 ACE     0.5972 ****
  6 O      28.613000   26.017000   24.416000 O     1 ACE    -0.5679 ****
  7 N      27.672000   27.911000   23.652000 N     2 ALA    -0.4157 ****
  8 H      26.816000   28.361000   23.365000 H     2 ALA     0.2719 ****
  9 CA     28.866000   28.756000   23.698000 C     2 ALA     0.0337 ****
 10 HA     29.493000   28.435000   24.532000 H     2 ALA     0.0823 ****
 11 CB     29.656000   28.572000   22.394000 C     2 ALA    -0.1825 ****
 12 HB1    29.047000   28.882000   21.544000 H     2 ALA     0.0603 ****
 13 HB2    30.564000   29.176000   22.419000 H     2 ALA     0.0603 ****
 14 HB3    29.935000   27.524000   22.275000 H     2 ALA     0.0603 ****
 15 C      28.493000   30.232000   23.927000 C     2 ALA     0.5973 ****
 16 O      27.351000   30.630000   23.695000 O     2 ALA    -0.5679 ****
 17 N      29.462000   31.035000   24.376000 N     3 ALA    -0.4157 ****
 18 H      30.376000   30.635000   24.507000 H     3 ALA     0.2719 ****
 19 CA     29.344000   32.492000   24.487000 C     3 ALA     0.0337 ****
 20 HA     28.366000   32.808000   24.120000 H     3 ALA     0.0823 ****
 21 CB     29.412000   32.853000   25.982000 C     3 ALA    -0.1825 ****
 22 HB1    30.389000   32.591000   26.392000 H     3 ALA     0.0603 ****
 23 HB2    29.232000   33.920000   26.119000 H     3 ALA     0.0603 ****
 24 HB3    28.640000   32.305000   26.525000 H     3 ALA     0.0603 ****
 25 C      30.389000   33.197000   23.591000 C     3 ALA     0.5973 ****
 26 O      30.603000   32.790000   22.452000 O     3 ALA    -0.5679 ****
 27 N      31.081000   34.220000   24.101000 N     4 GLY    -0.4157 ****
 28 H      30.895000   34.515000   25.050000 H     4 GLY     0.2719 ****
 29 CA     32.113000   34.965000   23.377000 C     4 GLY    -0.0252 ****
 30 HA2    32.897000   34.280000   23.057000 H     4 GLY     0.0698 ****
 31 HA3    31.672000   35.422000   22.491000 H     4 GLY     0.0698 ****
 32 C      32.741000   36.065000   24.238000 C     4 GLY     0.5973 ****
 33 O      32.382000   36.223000   25.403000 O     4 GLY    -0.5679 ****
 34 N      33.680000   36.822000   23.659000 N     5 NME    -0.4157 ****
 35 H      33.919000   36.630000   22.699000 H     5 NME     0.2719 ****
 36 CH3    34.379000   37.913000   24.337000 C     5 NME    -0.1490 ****
 37 HH31   33.658000   38.662000   24.670000 H     5 NME     0.0976 ****
 38 HH32   34.906000   37.527000   25.212000 H     5 NME     0.0976 ****
 39 HH33   35.097000   38.381000   23.662000 H     5 NME     0.0976 ****
@<TRIPOS>BOND
    1     5     6 1
    2     5     7 1
    3     2     3 1
    4     2     4 1
    5     2     5 1
    6     1     2 1
    7    15    16 1
    8    15    17 1
    9    11    12 1
   10    11    13 1
   11    11    14 1
   12     9    10 1
   13     9    11 1
   14     9    15 1
   15     7     8 1
   16     7     9 1
   17    25    26 1
   18    25    27 1
   19    21    22 1
   20    21    23 1
   21    21    24 1
   22    19    20 1
   23    19    21 1
   24    19    25 1
   25    17    18 1
   26    17    19 1
   27    32    33 1
   28    32    34 1
   29    29    30 1
   30    29    31 1
   31    29    32 1
   32    27    28 1
   33    27    29 1
   34    36    37 1
   35    36    38 1
   36    36    39 1
   37    34    35 1
   38    34    36 1
@<TRIPOS>SUBSTRUCTURE
      1  ACE              1 ****               0 ****  **** 
      2  ALA              7 ****               0 ****  **** 
      3  ALA             17 ****               0 ****  **** 
      4  GLY             27 ****               0 ****  **** 
      5  NME             34 ****               0 ****  **** 
