@<TRIPOS>MOLECULE
default_name
   39    38     5     0     1 
SMALL
USER_CHARGES
@<TRIPOS>ATOM
  1 H1     27.576000   26.765000   27.223000 H     1 ACE     0.1123 ****
  2 CH3    27.645000   27.773000   26.817000 C     1 ACE    -0.3662 ****
  3 H2     28.341000   28.361000   27.413000 H     1 ACE     0.1123 ****
  4 H3     26.661000   28.239000   26.827000 H     1 ACE     0.1123 ****
  5 C      28.147000   27.696000   25.395000 C     1 ACE     0.5972 ****
  6 O      28.402000   26.610000   24.891000 O     1 ACE    -0.5679 ****
  7 N      28.291000   28.853000   24.752000 N     2 ALA    -0.4157 ****
  8 H      28.093000   29.710000   25.245000 H     2 ALA     0.2719 ****
  9 CA     28.799000   28.989000   23.387000 C     2 ALA     0.0337 ****
 10 HA     29.553000   28.220000   23.214000 H     2 ALA     0.0823 ****
 11 CB     27.642000   28.774000   22.400000 C     2 ALA    -0.1825 ****
 12 HB1    26.872000   29.530000   22.558000 H     2 ALA     0.0603 ****
 13 HB2    28.008000   28.843000   21.375000 H     2 ALA     0.0603 ****
 14 HB3    27.209000   27.784000   22.550000 H     2 ALA     0.0603 ****
 15 C      29.464000   30.363000   23.182000 C     2 ALA     0.5973 ****
 16 O      29.175000   31.308000   23.916000 O     2 ALA    -0.5679 ****
 17 N      30.319000   30.473000   22.157000 N     3 ALA    -0.4157 ****
 18 H      30.486000   29.649000   21.604000 H     3 ALA     0.2719 ****
 19 CA     31.156000   31.646000   21.878000 C     3 ALA     0.0337 ****
 20 HA     31.969000   31.320000   21.228000 H     3 ALA     0.0823 ****
 21 CB     30.326000   32.666000   21.077000 C     3 ALA    -0.1825 ****
 22 HB1    30.954000   33.507000   20.779000 H     3 ALA     0.0603 ****
 23 HB2    29.929000   32.194000   20.178000 H     3 ALA     0.0603 ****
 24 HB3    29.493000   33.032000   21.680000 H     3 ALA     0.0603 ****
 25 C      31.844000   32.207000   23.148000 C     3 ALA     0.5973 ****
 26 O      32.602000   31.484000   23.793000 O     3 ALA    -0.5679 ****
 27 N      31.628000   33.479000   23.493000 N     4 GLY    -0.4157 ****
 28 H      30.987000   34.031000   22.941000 H     4 GLY     0.2719 ****
 29 CA     32.197000   34.122000   24.677000 C     4 GLY    -0.0252 ****
 30 HA2    31.850000   33.597000   25.568000 H     4 GLY     0.0698 ****
 31 HA3    33.284000   34.055000   24.639000 H     4 GLY     0.0698 ****
 32 C      31.797000   35.596000   24.787000 C     4 GLY     0.5973 ****
 33 O      31.162000   36.141000   23.886000 O     4 GLY    -0.5679 ****
 34 N      32.176000   36.240000   25.897000 N     5 NME    -0.4157 ****
 35 H      32.693000   35.723000   26.591000 H     5 NME     0.2719 ****
 36 CH3    31.879000   37.646000   26.166000 C     5 NME    -0.1490 ****
 37 HH31   30.797000   37.799000   26.173000 H     5 NME     0.0976 ****
 38 HH32   32.291000   37.944000   27.131000 H     5 NME     0.0976 ****
 39 HH33   32.311000   38.271000   25.381000 H     5 NME     0.0976 ****
@<TRIPOS>BOND
    1     5     6 1
    2     5     7 1
    3     2     3 1
    4     2     4 1
    5     2     5 1
    6     1     2 1
    7    15    16 1
    8    15    17 1
    9    11    12 1
   10    11    13 1
   11    11    14 1
   12     9    10 1
   13     9    11 1
   14     9    15 1
   15     7     8 1
   16     7     9 1
   17    25    26 1
   18    25    27 1
   19    21    22 1
   20    21    23 1
   21    21    24 1
   22    19    20 1
   23    19    21 1
   24    19    25 1
   25    17    18 1
   26    17    19 1
   27    32    33 1
   28    32    34 1
   29    29    30 1
   30    29    31 1
   31    29    32 1
   32    27    28 1
   33    27    29 1
   34    36    37 1
   35    36    38 1
   36    36    39 1
   37    34    35 1
   38    34    36 1
@<TRIPOS>SUBSTRUCTURE
      1  ACE              1 ****               0 ****  **** 
      2  ALA              7 ****               0 ****  **** 
      3  ALA             17 ****               0 ****  **** 
      4  GLY             27 ****               0 ****  **** 
      5  NME             34 ****               0 ****  **** 
