@<TRIPOS>MOLECULE
default_name
   39    38     5     0     1 
SMALL
USER_CHARGES
@<TRIPOS>ATOM
  1 H1     26.115000   25.015000   24.100000 H     1 ACE     0.1123 ****
  2 CH3    26.081000   26.060000   23.795000 C     1 ACE    -0.3662 ****
  3 H2     25.384000   26.604000   24.429000 H     1 ACE     0.1123 ****
  4 H3     25.768000   26.127000   22.755000 H     1 ACE     0.1123 ****
  5 C      27.461000   26.658000   23.941000 C     1 ACE     0.5972 ****
  6 O      28.388000   25.971000   24.348000 O     1 ACE    -0.5679 ****
  7 N      27.590000   27.941000   23.614000 N     2 ALA    -0.4157 ****
  8 H      26.771000   28.453000   23.322000 H     2 ALA     0.2719 ****
  9 CA     28.835000   28.703000   23.703000 C     2 ALA     0.0337 ****
 10 HA     29.423000   28.323000   24.540000 H     2 ALA     0.0823 ****
 11 CB     29.639000   28.498000   22.411000 C     2 ALA    -0.1825 ****
 12 HB1    29.069000   28.865000   21.556000 H     2 ALA     0.0603 ****
 13 HB2    30.583000   29.041000   22.468000 H     2 ALA     0.0603 ****
 14 HB3    29.852000   27.437000   22.272000 H     2 ALA     0.0603 ****
 15 C      28.555000   30.196000   23.960000 C     2 ALA     0.5973 ****
 16 O      27.447000   30.674000   23.716000 O     2 ALA    -0.5679 ****
 17 N      29.565000   30.923000   24.444000 N     3 ALA    -0.4157 ****
 18 H      30.454000   30.465000   24.566000 H     3 ALA     0.2719 ****
 19 CA     29.543000   32.382000   24.580000 C     3 ALA     0.0337 ****
 20 HA     28.592000   32.774000   24.215000 H     3 ALA     0.0823 ****
 21 CB     29.634000   32.701000   26.083000 C     3 ALA    -0.1825 ****
 22 HB1    30.600000   32.383000   26.478000 H     3 ALA     0.0603 ****
 23 HB2    29.506000   33.771000   26.251000 H     3 ALA     0.0603 ****
 24 HB3    28.840000   32.176000   26.617000 H     3 ALA     0.0603 ****
 25 C      30.652000   33.034000   23.720000 C     3 ALA     0.5973 ****
 26 O      31.065000   32.475000   22.706000 O     3 ALA    -0.5679 ****
 27 N      31.181000   34.187000   24.139000 N     4 GLY    -0.4157 ****
 28 H      30.834000   34.606000   24.991000 H     4 GLY     0.2719 ****
 29 CA     32.250000   34.908000   23.446000 C     4 GLY    -0.0252 ****
 30 HA2    33.122000   34.260000   23.352000 H     4 GLY     0.0698 ****
 31 HA3    31.913000   35.177000   22.444000 H     4 GLY     0.0698 ****
 32 C      32.662000   36.183000   24.187000 C     4 GLY     0.5973 ****
 33 O      32.122000   36.485000   25.250000 O     4 GLY    -0.5679 ****
 34 N      33.618000   36.929000   23.621000 N     5 NME    -0.4157 ****
 35 H      34.010000   36.614000   22.748000 H     5 NME     0.2719 ****
 36 CH3    34.126000   38.174000   24.195000 C     5 NME    -0.1490 ****
 37 HH31   33.311000   38.892000   24.298000 H     5 NME     0.0976 ****
 38 HH32   34.545000   37.980000   25.185000 H     5 NME     0.0976 ****
 39 HH33   34.901000   38.598000   23.554000 H     5 NME     0.0976 ****
@<TRIPOS>BOND
    1     5     6 1
    2     5     7 1
    3     2     3 1
    4     2     4 1
    5     2     5 1
    6     1     2 1
    7    15    16 1
    8    15    17 1
    9    11    12 1
   10    11    13 1
   11    11    14 1
   12     9    10 1
   13     9    11 1
   14     9    15 1
   15     7     8 1
   16     7     9 1
   17    25    26 1
   18    25    27 1
   19    21    22 1
   20    21    23 1
   21    21    24 1
   22    19    20 1
   23    19    21 1
   24    19    25 1
   25    17    18 1
   26    17    19 1
   27    32    33 1
   28    32    34 1
   29    29    30 1
   30    29    31 1
   31    29    32 1
   32    27    28 1
   33    27    29 1
   34    36    37 1
   35    36    38 1
   36    36    39 1
   37    34    35 1
   38    34    36 1
@<TRIPOS>SUBSTRUCTURE
      1  ACE              1 ****               0 ****  **** 
      2  ALA              7 ****               0 ****  **** 
      3  ALA             17 ****               0 ****  **** 
      4  GLY             27 ****               0 ****  **** 
      5  NME             34 ****               0 ****  **** 
