@<TRIPOS>MOLECULE
default_name
   39    38     5     0     1 
SMALL
USER_CHARGES
@<TRIPOS>ATOM
  1 H1     26.733000   32.710000   22.499000 H     1 ACE     0.1123 ****
  2 CH3    26.684000   31.631000   22.645000 C     1 ACE    -0.3662 ****
  3 H2     26.908000   31.127000   21.707000 H     1 ACE     0.1123 ****
  4 H3     25.690000   31.354000   22.989000 H     1 ACE     0.1123 ****
  5 C      27.705000   31.230000   23.683000 C     1 ACE     0.5972 ****
  6 O      28.414000   32.078000   24.212000 O     1 ACE    -0.5679 ****
  7 N      27.787000   29.933000   23.976000 N     2 ALA    -0.4157 ****
  8 H      27.203000   29.285000   23.475000 H     2 ALA     0.2719 ****
  9 CA     28.784000   29.393000   24.899000 C     2 ALA     0.0337 ****
 10 HA     28.693000   29.920000   25.850000 H     2 ALA     0.0823 ****
 11 CB     28.479000   27.909000   25.146000 C     2 ALA    -0.1825 ****
 12 HB1    28.545000   27.353000   24.210000 H     2 ALA     0.0603 ****
 13 HB2    29.203000   27.500000   25.851000 H     2 ALA     0.0603 ****
 14 HB3    27.477000   27.799000   25.563000 H     2 ALA     0.0603 ****
 15 C      30.209000   29.614000   24.351000 C     2 ALA     0.5973 ****
 16 O      30.545000   29.074000   23.300000 O     2 ALA    -0.5679 ****
 17 N      30.994000   30.419000   25.081000 N     3 ALA    -0.4157 ****
 18 H      30.548000   30.829000   25.888000 H     3 ALA     0.2719 ****
 19 CA     32.318000   30.995000   24.791000 C     3 ALA     0.0337 ****
 20 HA     32.944000   30.741000   25.648000 H     3 ALA     0.0823 ****
 21 CB     33.049000   30.393000   23.573000 C     3 ALA    -0.1825 ****
 22 HB1    32.506000   30.613000   22.653000 H     3 ALA     0.0603 ****
 23 HB2    34.055000   30.806000   23.504000 H     3 ALA     0.0603 ****
 24 HB3    33.132000   29.311000   23.690000 H     3 ALA     0.0603 ****
 25 C      32.226000   32.533000   24.827000 C     3 ALA     0.5973 ****
 26 O      31.836000   33.087000   25.850000 O     3 ALA    -0.5679 ****
 27 N      32.573000   33.225000   23.737000 N     4 GLY    -0.4157 ****
 28 H      32.849000   32.702000   22.921000 H     4 GLY     0.2719 ****
 29 CA     32.611000   34.694000   23.651000 C     4 GLY    -0.0252 ****
 30 HA2    33.048000   35.085000   24.570000 H     4 GLY     0.0698 ****
 31 HA3    33.261000   34.982000   22.824000 H     4 GLY     0.0698 ****
 32 C      31.263000   35.406000   23.451000 C     4 GLY     0.5973 ****
 33 O      31.264000   36.545000   22.993000 O     4 GLY    -0.5679 ****
 34 N      30.125000   34.758000   23.734000 N     5 NME    -0.4157 ****
 35 H      30.186000   33.833000   24.135000 H     5 NME     0.2719 ****
 36 CH3    28.793000   35.332000   23.563000 C     5 NME    -0.1490 ****
 37 HH31   28.750000   36.313000   24.041000 H     5 NME     0.0976 ****
 38 HH32   28.574000   35.447000   22.501000 H     5 NME     0.0976 ****
 39 HH33   28.047000   34.680000   24.019000 H     5 NME     0.0976 ****
@<TRIPOS>BOND
    1     5     6 1
    2     5     7 1
    3     2     3 1
    4     2     4 1
    5     2     5 1
    6     1     2 1
    7    15    16 1
    8    15    17 1
    9    11    12 1
   10    11    13 1
   11    11    14 1
   12     9    10 1
   13     9    11 1
   14     9    15 1
   15     7     8 1
   16     7     9 1
   17    25    26 1
   18    25    27 1
   19    21    22 1
   20    21    23 1
   21    21    24 1
   22    19    20 1
   23    19    21 1
   24    19    25 1
   25    17    18 1
   26    17    19 1
   27    32    33 1
   28    32    34 1
   29    29    30 1
   30    29    31 1
   31    29    32 1
   32    27    28 1
   33    27    29 1
   34    36    37 1
   35    36    38 1
   36    36    39 1
   37    34    35 1
   38    34    36 1
@<TRIPOS>SUBSTRUCTURE
      1  ACE              1 ****               0 ****  **** 
      2  ALA              7 ****               0 ****  **** 
      3  ALA             17 ****               0 ****  **** 
      4  GLY             27 ****               0 ****  **** 
      5  NME             34 ****               0 ****  **** 
