@<TRIPOS>MOLECULE
default_name
   39    38     5     0     1 
SMALL
USER_CHARGES
@<TRIPOS>ATOM
  1 H1     26.532000   24.899000   24.629000 H     1 ACE     0.1123 ****
  2 CH3    26.366000   25.916000   24.276000 C     1 ACE    -0.3662 ****
  3 H2     25.728000   26.448000   24.979000 H     1 ACE     0.1123 ****
  4 H3     25.898000   25.890000   23.294000 H     1 ACE     0.1123 ****
  5 C      27.698000   26.622000   24.176000 C     1 ACE     0.5972 ****
  6 O      28.729000   26.034000   24.473000 O     1 ACE    -0.5679 ****
  7 N      27.669000   27.887000   23.762000 N     2 ALA    -0.4157 ****
  8 H      26.776000   28.316000   23.572000 H     2 ALA     0.2719 ****
  9 CA     28.847000   28.743000   23.619000 C     2 ALA     0.0337 ****
 10 HA     29.581000   28.465000   24.377000 H     2 ALA     0.0823 ****
 11 CB     29.467000   28.510000   22.233000 C     2 ALA    -0.1825 ****
 12 HB1    28.750000   28.777000   21.455000 H     2 ALA     0.0603 ****
 13 HB2    30.362000   29.123000   22.117000 H     2 ALA     0.0603 ****
 14 HB3    29.743000   27.460000   22.123000 H     2 ALA     0.0603 ****
 15 C      28.484000   30.225000   23.832000 C     2 ALA     0.5973 ****
 16 O      27.317000   30.603000   23.733000 O     2 ALA    -0.5679 ****
 17 N      29.489000   31.057000   24.117000 N     3 ALA    -0.4157 ****
 18 H      30.422000   30.678000   24.130000 H     3 ALA     0.2719 ****
 19 CA     29.358000   32.514000   24.195000 C     3 ALA     0.0337 ****
 20 HA     28.435000   32.820000   23.700000 H     3 ALA     0.0823 ****
 21 CB     29.237000   32.897000   25.682000 C     3 ALA    -0.1825 ****
 22 HB1    30.152000   32.638000   26.216000 H     3 ALA     0.0603 ****
 23 HB2    29.045000   33.966000   25.780000 H     3 ALA     0.0603 ****
 24 HB3    28.400000   32.358000   26.129000 H     3 ALA     0.0603 ****
 25 C      30.510000   33.207000   23.432000 C     3 ALA     0.5973 ****
 26 O      30.867000   32.781000   22.336000 O     3 ALA    -0.5679 ****
 27 N      31.135000   34.236000   24.011000 N     4 GLY    -0.4157 ****
 28 H      30.829000   34.545000   24.923000 H     4 GLY     0.2719 ****
 29 CA     32.253000   34.970000   23.414000 C     4 GLY    -0.0252 ****
 30 HA2    33.071000   34.280000   23.210000 H     4 GLY     0.0698 ****
 31 HA3    31.931000   35.411000   22.470000 H     4 GLY     0.0698 ****
 32 C      32.766000   36.085000   24.329000 C     4 GLY     0.5973 ****
 33 O      32.256000   36.266000   25.434000 O     4 GLY    -0.5679 ****
 34 N      33.777000   36.830000   23.867000 N     5 NME    -0.4157 ****
 35 H      34.140000   36.619000   22.951000 H     5 NME     0.2719 ****
 36 CH3    34.384000   37.932000   24.611000 C     5 NME    -0.1490 ****
 37 HH31   33.628000   38.689000   24.832000 H     5 NME     0.0976 ****
 38 HH32   34.789000   37.561000   25.555000 H     5 NME     0.0976 ****
 39 HH33   35.188000   38.386000   24.029000 H     5 NME     0.0976 ****
@<TRIPOS>BOND
    1     5     6 1
    2     5     7 1
    3     2     3 1
    4     2     4 1
    5     2     5 1
    6     1     2 1
    7    15    16 1
    8    15    17 1
    9    11    12 1
   10    11    13 1
   11    11    14 1
   12     9    10 1
   13     9    11 1
   14     9    15 1
   15     7     8 1
   16     7     9 1
   17    25    26 1
   18    25    27 1
   19    21    22 1
   20    21    23 1
   21    21    24 1
   22    19    20 1
   23    19    21 1
   24    19    25 1
   25    17    18 1
   26    17    19 1
   27    32    33 1
   28    32    34 1
   29    29    30 1
   30    29    31 1
   31    29    32 1
   32    27    28 1
   33    27    29 1
   34    36    37 1
   35    36    38 1
   36    36    39 1
   37    34    35 1
   38    34    36 1
@<TRIPOS>SUBSTRUCTURE
      1  ACE              1 ****               0 ****  **** 
      2  ALA              7 ****               0 ****  **** 
      3  ALA             17 ****               0 ****  **** 
      4  GLY             27 ****               0 ****  **** 
      5  NME             34 ****               0 ****  **** 
