@<TRIPOS>MOLECULE
default_name
   39    38     5     0     1 
SMALL
USER_CHARGES
@<TRIPOS>ATOM
  1 H1     25.446000   29.321000   25.586000 H     1 ACE     0.1123 ****
  2 CH3    25.843000   29.496000   24.587000 C     1 ACE    -0.3662 ****
  3 H2     25.920000   30.568000   24.409000 H     1 ACE     0.1123 ****
  4 H3     25.188000   29.040000   23.847000 H     1 ACE     0.1123 ****
  5 C      27.218000   28.881000   24.491000 C     1 ACE     0.5972 ****
  6 O      27.716000   28.329000   25.464000 O     1 ACE    -0.5679 ****
  7 N      27.833000   28.977000   23.314000 N     2 ALA    -0.4157 ****
  8 H      27.364000   29.475000   22.576000 H     2 ALA     0.2719 ****
  9 CA     29.221000   28.579000   23.078000 C     2 ALA     0.0337 ****
 10 HA     29.449000   27.700000   23.683000 H     2 ALA     0.0823 ****
 11 CB     29.366000   28.185000   21.600000 C     2 ALA    -0.1825 ****
 12 HB1    29.127000   29.034000   20.959000 H     2 ALA     0.0603 ****
 13 HB2    30.394000   27.875000   21.405000 H     2 ALA     0.0603 ****
 14 HB3    28.696000   27.356000   21.370000 H     2 ALA     0.0603 ****
 15 C      30.179000   29.711000   23.507000 C     2 ALA     0.5973 ****
 16 O      30.647000   30.488000   22.675000 O     2 ALA    -0.5679 ****
 17 N      30.460000   29.803000   24.813000 N     3 ALA    -0.4157 ****
 18 H      30.066000   29.091000   25.408000 H     3 ALA     0.2719 ****
 19 CA     30.910000   31.025000   25.492000 C     3 ALA     0.0337 ****
 20 HA     30.553000   30.988000   26.522000 H     3 ALA     0.0823 ****
 21 CB     32.450000   30.988000   25.533000 C     3 ALA    -0.1825 ****
 22 HB1    32.831000   31.811000   26.139000 H     3 ALA     0.0603 ****
 23 HB2    32.785000   30.051000   25.978000 H     3 ALA     0.0603 ****
 24 HB3    32.853000   31.063000   24.521000 H     3 ALA     0.0603 ****
 25 C      30.318000   32.321000   24.874000 C     3 ALA     0.5973 ****
 26 O      29.112000   32.388000   24.628000 O     3 ALA    -0.5679 ****
 27 N      31.120000   33.373000   24.695000 N     4 GLY    -0.4157 ****
 28 H      32.102000   33.282000   24.917000 H     4 GLY     0.2719 ****
 29 CA     30.694000   34.648000   24.119000 C     4 GLY    -0.0252 ****
 30 HA2    30.310000   34.473000   23.113000 H     4 GLY     0.0698 ****
 31 HA3    29.893000   35.071000   24.725000 H     4 GLY     0.0698 ****
 32 C      31.838000   35.663000   24.039000 C     4 GLY     0.5973 ****
 33 O      32.939000   35.403000   24.523000 O     4 GLY    -0.5679 ****
 34 N      31.573000   36.822000   23.427000 N     5 NME    -0.4157 ****
 35 H      30.647000   36.958000   23.053000 H     5 NME     0.2719 ****
 36 CH3    32.548000   37.899000   23.261000 C     5 NME    -0.1490 ****
 37 HH31   32.097000   38.741000   22.735000 H     5 NME     0.0976 ****
 38 HH32   32.900000   38.232000   24.240000 H     5 NME     0.0976 ****
 39 HH33   33.405000   37.534000   22.691000 H     5 NME     0.0976 ****
@<TRIPOS>BOND
    1     5     6 1
    2     5     7 1
    3     2     3 1
    4     2     4 1
    5     2     5 1
    6     1     2 1
    7    15    16 1
    8    15    17 1
    9    11    12 1
   10    11    13 1
   11    11    14 1
   12     9    10 1
   13     9    11 1
   14     9    15 1
   15     7     8 1
   16     7     9 1
   17    25    26 1
   18    25    27 1
   19    21    22 1
   20    21    23 1
   21    21    24 1
   22    19    20 1
   23    19    21 1
   24    19    25 1
   25    17    18 1
   26    17    19 1
   27    32    33 1
   28    32    34 1
   29    29    30 1
   30    29    31 1
   31    29    32 1
   32    27    28 1
   33    27    29 1
   34    36    37 1
   35    36    38 1
   36    36    39 1
   37    34    35 1
   38    34    36 1
@<TRIPOS>SUBSTRUCTURE
      1  ACE              1 ****               0 ****  **** 
      2  ALA              7 ****               0 ****  **** 
      3  ALA             17 ****               0 ****  **** 
      4  GLY             27 ****               0 ****  **** 
      5  NME             34 ****               0 ****  **** 
