@<TRIPOS>MOLECULE
default_name
   39    38     5     0     1 
SMALL
USER_CHARGES
@<TRIPOS>ATOM
  1 H1     25.547000   27.000000   25.354000 H     1 ACE     0.1123 ****
  2 CH3    25.978000   27.135000   24.364000 C     1 ACE    -0.3662 ****
  3 H2     25.291000   27.707000   23.743000 H     1 ACE     0.1123 ****
  4 H3     26.171000   26.164000   23.912000 H     1 ACE     0.1123 ****
  5 C      27.272000   27.904000   24.495000 C     1 ACE     0.5972 ****
  6 O      27.625000   28.336000   25.586000 O     1 ACE    -0.5679 ****
  7 N      27.972000   28.086000   23.377000 N     2 ALA    -0.4157 ****
  8 H      27.614000   27.709000   22.514000 H     2 ALA     0.2719 ****
  9 CA     29.181000   28.904000   23.307000 C     2 ALA     0.0337 ****
 10 HA     29.767000   28.749000   24.215000 H     2 ALA     0.0823 ****
 11 CB     30.041000   28.430000   22.126000 C     2 ALA    -0.1825 ****
 12 HB1    29.499000   28.556000   21.187000 H     2 ALA     0.0603 ****
 13 HB2    30.958000   29.021000   22.084000 H     2 ALA     0.0603 ****
 14 HB3    30.304000   27.380000   22.267000 H     2 ALA     0.0603 ****
 15 C      28.838000   30.404000   23.232000 C     2 ALA     0.5973 ****
 16 O      28.476000   30.925000   22.183000 O     2 ALA    -0.5679 ****
 17 N      28.894000   31.073000   24.384000 N     3 ALA    -0.4157 ****
 18 H      28.777000   30.473000   25.181000 H     3 ALA     0.2719 ****
 19 CA     29.724000   32.237000   24.721000 C     3 ALA     0.0337 ****
 20 HA     29.039000   33.046000   24.976000 H     3 ALA     0.0823 ****
 21 CB     30.462000   31.817000   26.003000 C     3 ALA    -0.1825 ****
 22 HB1    31.223000   31.074000   25.760000 H     3 ALA     0.0603 ****
 23 HB2    30.941000   32.677000   26.472000 H     3 ALA     0.0603 ****
 24 HB3    29.751000   31.374000   26.705000 H     3 ALA     0.0603 ****
 25 C      30.721000   32.807000   23.667000 C     3 ALA     0.5973 ****
 26 O      30.957000   32.237000   22.610000 O     3 ALA    -0.5679 ****
 27 N      31.450000   33.873000   24.037000 N     4 GLY    -0.4157 ****
 28 H      31.280000   34.276000   24.942000 H     4 GLY     0.2719 ****
 29 CA     32.506000   34.472000   23.200000 C     4 GLY    -0.0252 ****
 30 HA2    33.472000   34.080000   23.522000 H     4 GLY     0.0698 ****
 31 HA3    32.360000   34.188000   22.156000 H     4 GLY     0.0698 ****
 32 C      32.562000   36.003000   23.244000 C     4 GLY     0.5973 ****
 33 O      32.365000   36.654000   22.225000 O     4 GLY    -0.5679 ****
 34 N      32.804000   36.588000   24.424000 N     5 NME    -0.4157 ****
 35 H      33.008000   36.003000   25.216000 H     5 NME     0.2719 ****
 36 CH3    32.798000   38.040000   24.621000 C     5 NME    -0.1490 ****
 37 HH31   31.773000   38.417000   24.584000 H     5 NME     0.0976 ****
 38 HH32   33.242000   38.296000   25.584000 H     5 NME     0.0976 ****
 39 HH33   33.363000   38.526000   23.821000 H     5 NME     0.0976 ****
@<TRIPOS>BOND
    1     5     6 1
    2     5     7 1
    3     2     3 1
    4     2     4 1
    5     2     5 1
    6     1     2 1
    7    15    16 1
    8    15    17 1
    9    11    12 1
   10    11    13 1
   11    11    14 1
   12     9    10 1
   13     9    11 1
   14     9    15 1
   15     7     8 1
   16     7     9 1
   17    25    26 1
   18    25    27 1
   19    21    22 1
   20    21    23 1
   21    21    24 1
   22    19    20 1
   23    19    21 1
   24    19    25 1
   25    17    18 1
   26    17    19 1
   27    32    33 1
   28    32    34 1
   29    29    30 1
   30    29    31 1
   31    29    32 1
   32    27    28 1
   33    27    29 1
   34    36    37 1
   35    36    38 1
   36    36    39 1
   37    34    35 1
   38    34    36 1
@<TRIPOS>SUBSTRUCTURE
      1  ACE              1 ****               0 ****  **** 
      2  ALA              7 ****               0 ****  **** 
      3  ALA             17 ****               0 ****  **** 
      4  GLY             27 ****               0 ****  **** 
      5  NME             34 ****               0 ****  **** 
