@<TRIPOS>MOLECULE
default_name
   39    38     5     0     1 
SMALL
USER_CHARGES
@<TRIPOS>ATOM
  1 H1     26.816000   25.605000   22.143000 H     1 ACE     0.1123 ****
  2 CH3    27.019000   26.667000   22.006000 C     1 ACE    -0.3662 ****
  3 H2     26.084000   27.223000   22.024000 H     1 ACE     0.1123 ****
  4 H3     27.527000   26.823000   21.057000 H     1 ACE     0.1123 ****
  5 C      27.907000   27.144000   23.132000 C     1 ACE     0.5972 ****
  6 O      28.275000   26.363000   23.999000 O     1 ACE    -0.5679 ****
  7 N      28.244000   28.431000   23.118000 N     2 ALA    -0.4157 ****
  8 H      27.870000   29.025000   22.392000 H     2 ALA     0.2719 ****
  9 CA     29.068000   29.087000   24.133000 C     2 ALA     0.0337 ****
 10 HA     28.874000   28.619000   25.099000 H     2 ALA     0.0823 ****
 11 CB     30.550000   28.884000   23.780000 C     2 ALA    -0.1825 ****
 12 HB1    30.768000   29.341000   22.813000 H     2 ALA     0.0603 ****
 13 HB2    31.182000   29.339000   24.542000 H     2 ALA     0.0603 ****
 14 HB3    30.774000   27.817000   23.731000 H     2 ALA     0.0603 ****
 15 C      28.717000   30.582000   24.247000 C     2 ALA     0.5973 ****
 16 O      28.148000   31.151000   23.322000 O     2 ALA    -0.5679 ****
 17 N      29.076000   31.195000   25.382000 N     3 ALA    -0.4157 ****
 18 H      29.531000   30.625000   26.076000 H     3 ALA     0.2719 ****
 19 CA     28.898000   32.613000   25.721000 C     3 ALA     0.0337 ****
 20 HA     27.831000   32.759000   25.895000 H     3 ALA     0.0823 ****
 21 CB     29.605000   32.897000   27.057000 C     3 ALA    -0.1825 ****
 22 HB1    30.676000   32.707000   26.972000 H     3 ALA     0.0603 ****
 23 HB2    29.446000   33.939000   27.340000 H     3 ALA     0.0603 ****
 24 HB3    29.190000   32.258000   27.837000 H     3 ALA     0.0603 ****
 25 C      29.255000   33.614000   24.596000 C     3 ALA     0.5973 ****
 26 O      28.382000   34.095000   23.880000 O     3 ALA    -0.5679 ****
 27 N      30.521000   34.034000   24.521000 N     4 GLY    -0.4157 ****
 28 H      31.205000   33.648000   25.156000 H     4 GLY     0.2719 ****
 29 CA     31.011000   35.007000   23.544000 C     4 GLY    -0.0252 ****
 30 HA2    30.796000   34.645000   22.538000 H     4 GLY     0.0698 ****
 31 HA3    30.491000   35.955000   23.686000 H     4 GLY     0.0698 ****
 32 C      32.517000   35.245000   23.672000 C     4 GLY     0.5973 ****
 33 O      33.168000   34.666000   24.541000 O     4 GLY    -0.5679 ****
 34 N      33.069000   36.099000   22.802000 N     5 NME    -0.4157 ****
 35 H      32.467000   36.532000   22.118000 H     5 NME     0.2719 ****
 36 CH3    34.490000   36.440000   22.783000 C     5 NME    -0.1490 ****
 37 HH31   34.778000   36.874000   23.742000 H     5 NME     0.0976 ****
 38 HH32   35.084000   35.538000   22.619000 H     5 NME     0.0976 ****
 39 HH33   34.698000   37.156000   21.987000 H     5 NME     0.0976 ****
@<TRIPOS>BOND
    1     5     6 1
    2     5     7 1
    3     2     3 1
    4     2     4 1
    5     2     5 1
    6     1     2 1
    7    15    16 1
    8    15    17 1
    9    11    12 1
   10    11    13 1
   11    11    14 1
   12     9    10 1
   13     9    11 1
   14     9    15 1
   15     7     8 1
   16     7     9 1
   17    25    26 1
   18    25    27 1
   19    21    22 1
   20    21    23 1
   21    21    24 1
   22    19    20 1
   23    19    21 1
   24    19    25 1
   25    17    18 1
   26    17    19 1
   27    32    33 1
   28    32    34 1
   29    29    30 1
   30    29    31 1
   31    29    32 1
   32    27    28 1
   33    27    29 1
   34    36    37 1
   35    36    38 1
   36    36    39 1
   37    34    35 1
   38    34    36 1
@<TRIPOS>SUBSTRUCTURE
      1  ACE              1 ****               0 ****  **** 
      2  ALA              7 ****               0 ****  **** 
      3  ALA             17 ****               0 ****  **** 
      4  GLY             27 ****               0 ****  **** 
      5  NME             34 ****               0 ****  **** 
