@<TRIPOS>MOLECULE
default_name
   39    38     5     0     1 
SMALL
USER_CHARGES
@<TRIPOS>ATOM
  1 H1     24.992000   27.200000   22.698000 H     1 ACE     0.1123 ****
  2 CH3    26.038000   27.137000   22.995000 C     1 ACE    -0.3662 ****
  3 H2     26.642000   26.827000   22.145000 H     1 ACE     0.1123 ****
  4 H3     26.144000   26.421000   23.808000 H     1 ACE     0.1123 ****
  5 C      26.495000   28.498000   23.465000 C     1 ACE     0.5972 ****
  6 O      25.716000   29.442000   23.464000 O     1 ACE    -0.5679 ****
  7 N      27.762000   28.594000   23.861000 N     2 ALA    -0.4157 ****
  8 H      28.353000   27.779000   23.798000 H     2 ALA     0.2719 ****
  9 CA     28.401000   29.826000   24.325000 C     2 ALA     0.0337 ****
 10 HA     27.972000   30.672000   23.785000 H     2 ALA     0.0823 ****
 11 CB     28.109000   30.005000   25.822000 C     2 ALA    -0.1825 ****
 12 HB1    28.527000   29.169000   26.385000 H     2 ALA     0.0603 ****
 13 HB2    28.552000   30.934000   26.181000 H     2 ALA     0.0603 ****
 14 HB3    27.031000   30.045000   25.986000 H     2 ALA     0.0603 ****
 15 C      29.915000   29.802000   24.044000 C     2 ALA     0.5973 ****
 16 O      30.492000   28.736000   23.828000 O     2 ALA    -0.5679 ****
 17 N      30.554000   30.976000   24.075000 N     3 ALA    -0.4157 ****
 18 H      30.018000   31.796000   24.315000 H     3 ALA     0.2719 ****
 19 CA     31.989000   31.169000   23.851000 C     3 ALA     0.0337 ****
 20 HA     32.545000   30.445000   24.450000 H     3 ALA     0.0823 ****
 21 CB     32.308000   30.918000   22.361000 C     3 ALA    -0.1825 ****
 22 HB1    33.374000   31.059000   22.178000 H     3 ALA     0.0603 ****
 23 HB2    32.056000   29.891000   22.094000 H     3 ALA     0.0603 ****
 24 HB3    31.731000   31.595000   21.729000 H     3 ALA     0.0603 ****
 25 C      32.393000   32.581000   24.335000 C     3 ALA     0.5973 ****
 26 O      32.206000   32.894000   25.508000 O     3 ALA    -0.5679 ****
 27 N      32.897000   33.455000   23.456000 N     4 GLY    -0.4157 ****
 28 H      32.977000   33.167000   22.494000 H     4 GLY     0.2719 ****
 29 CA     33.086000   34.875000   23.767000 C     4 GLY    -0.0252 ****
 30 HA2    33.600000   34.968000   24.724000 H     4 GLY     0.0698 ****
 31 HA3    33.701000   35.342000   22.999000 H     4 GLY     0.0698 ****
 32 C      31.750000   35.626000   23.839000 C     4 GLY     0.5973 ****
 33 O      30.845000   35.351000   23.054000 O     4 GLY    -0.5679 ****
 34 N      31.636000   36.581000   24.769000 N     5 NME    -0.4157 ****
 35 H      32.411000   36.726000   25.396000 H     5 NME     0.2719 ****
 36 CH3    30.431000   37.384000   24.968000 C     5 NME    -0.1490 ****
 37 HH31   29.599000   36.734000   25.248000 H     5 NME     0.0976 ****
 38 HH32   30.592000   38.121000   25.757000 H     5 NME     0.0976 ****
 39 HH33   30.172000   37.899000   24.041000 H     5 NME     0.0976 ****
@<TRIPOS>BOND
    1     5     6 1
    2     5     7 1
    3     2     3 1
    4     2     4 1
    5     2     5 1
    6     1     2 1
    7    15    16 1
    8    15    17 1
    9    11    12 1
   10    11    13 1
   11    11    14 1
   12     9    10 1
   13     9    11 1
   14     9    15 1
   15     7     8 1
   16     7     9 1
   17    25    26 1
   18    25    27 1
   19    21    22 1
   20    21    23 1
   21    21    24 1
   22    19    20 1
   23    19    21 1
   24    19    25 1
   25    17    18 1
   26    17    19 1
   27    32    33 1
   28    32    34 1
   29    29    30 1
   30    29    31 1
   31    29    32 1
   32    27    28 1
   33    27    29 1
   34    36    37 1
   35    36    38 1
   36    36    39 1
   37    34    35 1
   38    34    36 1
@<TRIPOS>SUBSTRUCTURE
      1  ACE              1 ****               0 ****  **** 
      2  ALA              7 ****               0 ****  **** 
      3  ALA             17 ****               0 ****  **** 
      4  GLY             27 ****               0 ****  **** 
      5  NME             34 ****               0 ****  **** 
